VERS 160608 48 100027
MODE SEQ
NAME 
PFIL 0 0 0
LANG 0
UNIT MM X W X CM MR CPMM
FNUM 7.50E+00 0
ENVD 2.00E+01 1 0
GFAC 0 0
GCAT SCHOTT HIKARI OHARA SUMITA_AUG2011 
RAIM 0 0 1 1 0 0 0 0 0 1
PUSH 0 0 0 0 0 0
SDMA 0 1 0
OMMA 1 1
FTYP 2 0 3 3 0 0 0
ROPD 2
PICB 1
XFLN 0 0 0 0 0 0 0 0 0 0 0 0
YFLN 0 1.40E+01 2.10E+01 0 0 0 0 0 0 0 0 0
FWGN 1 1 1 1 1 1 1 1 1 1 1 1
VDXN 0 0 0 0 0 0 0 0 0 0 0 0
VDYN 0 0 0 0 0 0 0 0 0 0 0 0
VCXN 0 0 0 0 0 0 0 0 0 0 0 0
VCYN 0 0 0 0 0 0 0 0 0 0 0 0
VANN 0 0 0 0 0 0 0 0 0 0 0 0
WAVM 1 4.8613270E-01 1
WAVM 2 5.8756180E-01 1
WAVM 3 6.5627250E-01 1
WAVM 4 5.50E-01 1
WAVM 5 5.50E-01 1
WAVM 6 5.50E-01 1
WAVM 7 5.50E-01 1
WAVM 8 5.50E-01 1
WAVM 9 5.50E-01 1
WAVM 10 5.50E-01 1
WAVM 11 5.50E-01 1
WAVM 12 5.50E-01 1
WAVM 13 5.50E-01 1
WAVM 14 5.50E-01 1
WAVM 15 5.50E-01 1
WAVM 16 5.50E-01 1
WAVM 17 5.50E-01 1
WAVM 18 5.50E-01 1
WAVM 19 5.50E-01 1
WAVM 20 5.50E-01 1
WAVM 21 5.50E-01 1
WAVM 22 5.50E-01 1
WAVM 23 5.50E-01 1
WAVM 24 5.50E-01 1
PWAV 2
POLS 1 0 1 0 0 1 0
GLRS 5 0
GSTD 0 100.000 100.000 100.000 100.000 100.000 100.000 0 1 1 0 0 1 1 1 1 1 1
NSCD 100 500 0 1.00E-03 5 1.00E-06 0 0 0 0 0 0 1000000 0 2
COFN QF "COATING.DAT" "SCATTER_PROFILE.DAT" "ABG_DATA.DAT" "PROFILE.GRD"
COFN COATING.DAT SCATTER_PROFILE.DAT ABG_DATA.DAT PROFILE.GRD
SURF 0
  TYPE STANDARD
  FIMP 
  CURV 0.0 0 0 0 0 ""
  HIDE 0 0 0 0 0 0 0 0 0 0
  MIRR 2 0
  DISZ INFINITY
  DIAM 0 0 0 0 1 ""
  MEMA 0 0 0 0 1 ""
  POPS 0 0 0 0 0 0 0 0 1 1 1 1 0 0 0 0
SURF 1
  TYPE STANDARD
  FIMP 
  CURV 2.595630152812534032E-04 0 0 0 0 ""
  HIDE 0 0 0 0 0 0 0 0 0 0
  MIRR 2 0
  SLAB 4
  DISZ 1.00E+01
  GLAS N-BK7 0 0 1.50E+00 4.00E+01 0 0 0 0 0 0 
  DIAM 6.930892741211E+01 0 0 0 1 ""
  MEMA 6.930892741211E+01 0 0 0 1 ""
  POPS 0 0 0 0 0 0 0 0 1 1 1 1 0 0 0 0
SURF 2
  TYPE STANDARD
  FIMP 
  CURV -1.666308410358439528E-03 0 0 0 0 ""
  HIDE 0 0 0 0 0 0 0 0 0 0
  MIRR 2 0
  SLAB 3
  DISZ 9.8150E+01
  DIAM 6.920160564213E+01 0 0 0 1 ""
  MEMA 6.930892741211E+01 0 0 0 1 ""
  POPS 0 0 0 0 0 0 0 0 1 1 1 1 0 0 0 0
  OBSC 0 2.50E+01 0
SURF 3
  TYPE STANDARD
  FIMP 
  CURV -5.159825597894790797E-03 0 0 0 0 ""
  HIDE 0 0 0 0 0 0 0 0 0 0
  MIRR 2 0
  SLAB 2
  DISZ 1.50E+01
  GLAS N-BK7 0 0 1.50E+00 4.00E+01 0 0 0 0 0 0 
  DIAM 6.081744342638E+01 0 0 0 1 ""
  MEMA 6.180137536485E+01 0 0 0 1 ""
  POPS 0 0 0 0 0 0 0 0 1 1 1 1 0 0 0 0
SURF 4
  STOP
  TYPE STANDARD
  FIMP 
  CURV -3.237178345866608634E-03 0 0 0 0 ""
  HIDE 0 0 0 0 0 0 0 0 0 0
  MIRR 2 0
  SLAB 1
  DISZ -1.50E+01
  GLAS MIRROR 0 0 1.50E+00 4.00E+01 0 0 0 0 0 0 
  DIAM 6.180137536485E+01 0 0 0 1 ""
  MEMA 6.180137536485E+01 0 0 0 1 ""
  POPS 0 0 0 0 0 0 0 0 1 1 1 1 0 0 0 0
SURF 5
  TYPE STANDARD
  FIMP 
  CURV -5.159825597894790797E-03 0 0 0 0 ""
  HIDE 0 0 0 0 0 0 0 0 0 0
  MIRR 2 0
  DISZ -8.8620E+01
  DIAM 5.59372836428E+01 0 0 0 1 ""
  MEMA 6.180137536485E+01 0 0 0 1 ""
  POPS 0 0 0 0 0 0 0 0 1 1 1 1 0 0 0 0
SURF 6
  TYPE STANDARD
  FIMP 
  CURV -1.048393860605552341E-02 0 0 0 0 ""
  HIDE 0 0 0 0 0 0 0 0 0 0
  MIRR 2 0
  SLAB 16
  DISZ -5.0E+00
  GLAS N-BK7 0 0 1.50E+00 4.00E+01 0 0 0 0 0 0 
  DIAM 2.678862692030E+01 0 0 0 1 ""
  MEMA 2.678862692030E+01 0 0 0 1 ""
  POPS 0 0 0 0 0 0 0 0 1 1 1 1 0 0 0 0
SURF 7
  TYPE STANDARD
  FIMP 
  CURV -6.784720808738721118E-03 0 0 0 0 ""
  HIDE 0 0 0 0 0 0 0 0 0 0
  MIRR 2 0
  SLAB 15
  DISZ 5.00E+00
  GLAS MIRROR 0 0 1.50E+00 4.00E+01 0 0 0 0 0 0 
  DIAM 2.567224920425E+01 0 0 0 1 ""
  MEMA 2.678862692030E+01 0 0 0 1 ""
  POPS 0 0 0 0 0 0 0 0 1 1 1 1 0 0 0 0
SURF 8
  TYPE STANDARD
  FIMP 
  CURV -1.048393860605552341E-02 0 0 0 0 ""
  HIDE 0 0 0 0 0 0 0 0 0 0
  MIRR 2 0
  SLAB 14
  DISZ 5.5460E+01
  DIAM 2.579839671168E+01 0 0 0 1 ""
  MEMA 2.678862692030E+01 0 0 0 1 ""
  POPS 0 0 0 0 0 0 0 0 1 1 1 1 0 0 0 0
SURF 9
  TYPE STANDARD
  FIMP 
  CURV 1.485552997103171784E-02 0 0 0 0 ""
  HIDE 0 0 0 0 0 0 0 0 0 0
  MIRR 2 0
  SLAB 13
  DISZ 3.00E+00
  GLAS J-LAK02 0 0 1.50E+00 4.00E+01 0 0 0 0 0 0 
  DIAM 1.982502070125E+01 0 0 0 1 ""
  MEMA 1.982502070125E+01 0 0 0 1 ""
  POPS 0 0 0 0 0 0 0 0 1 1 1 1 0 0 0 0
SURF 10
  TYPE STANDARD
  FIMP 
  CURV 2.917689073546188457E-03 0 0 0 0 ""
  HIDE 0 0 0 0 0 0 0 0 0 0
  MIRR 2 0
  SLAB 12
  DISZ 1
  GLAS S-FTM16 0 0 1.50E+00 4.00E+01 0 0 0 0 0 0 
  DIAM 1.971993042918E+01 0 0 0 1 ""
  MEMA 1.982502070125E+01 0 0 0 1 ""
  POPS 0 0 0 0 0 0 0 0 1 1 1 1 0 0 0 0
SURF 11
  TYPE STANDARD
  FIMP 
  CURV 1.220092483010212260E-02 0 0 0 0 ""
  HIDE 0 0 0 0 0 0 0 0 0 0
  MIRR 2 0
  SLAB 11
  DISZ 1.931470E+01
  DIAM 1.921401087725E+01 0 0 0 1 ""
  MEMA 1.982502070125E+01 0 0 0 1 ""
  POPS 0 0 0 0 0 0 0 0 1 1 1 1 0 0 0 0
SURF 12
  TYPE STANDARD
  FIMP 
  CURV 4.831828218843163027E-03 0 0 0 0 ""
  HIDE 0 0 0 0 0 0 0 0 0 0
  MIRR 2 0
  SLAB 10
  DISZ 3.350E+00
  GLAS E-LAFH3 0 0 1.50E+00 4.00E+01 0 0 0 0 0 0 
  DIAM 1.649782200558E+01 0 0 0 1 ""
  MEMA 1.649782200558E+01 0 0 0 1 ""
  POPS 0 0 0 0 0 0 0 0 1 1 1 1 0 0 0 0
SURF 13
  TYPE STANDARD
  FIMP 
  CURV -1.695748757864035117E-02 0 0 0 0 ""
  HIDE 0 0 0 0 0 0 0 0 0 0
  MIRR 2 0
  SLAB 9
  DISZ 1.70E+00
  GLAS K-SSK1 0 0 1.50E+00 4.00E+01 0 0 0 0 0 0 
  DIAM 1.645584120455E+01 0 0 0 1 ""
  MEMA 1.649782200558E+01 0 0 0 1 ""
  POPS 0 0 0 0 0 0 0 0 1 1 1 1 0 0 0 0
SURF 14
  TYPE STANDARD
  FIMP 
  CURV 1.540547202366280427E-02 0 0 0 0 ""
  HIDE 0 0 0 0 0 0 0 0 0 0
  MIRR 2 0
  SLAB 23
  DISZ 4.50E+00
  DIAM 1.544972920971E+01 0 0 0 1 ""
  MEMA 1.649782200558E+01 0 0 0 1 ""
  POPS 0 0 0 0 0 0 0 0 1 1 1 1 0 0 0 0
SURF 15
  TYPE STANDARD
  FIMP 
  CURV -1.206534591346733812E-02 0 0 0 0 ""
  HIDE 0 0 0 0 0 0 0 0 0 0
  MIRR 2 0
  SLAB 22
  DISZ 2.250E+00
  GLAS K-SSK1 0 0 1.50E+00 4.00E+01 0 0 0 0 0 0 
  DIAM 1.530265854497E+01 0 0 0 1 ""
  MEMA 1.530265854497E+01 0 0 0 1 ""
  POPS 0 0 0 0 0 0 0 0 1 1 1 1 0 0 0 0
SURF 16
  TYPE STANDARD
  FIMP 
  CURV 1.608984569837975179E-02 0 0 0 0 ""
  HIDE 0 0 0 0 0 0 0 0 0 0
  MIRR 2 0
  SLAB 21
  DISZ 2.79340E+01
  DIAM 1.528875404939E+01 0 0 0 1 ""
  MEMA 1.530265854497E+01 0 0 0 1 ""
  POPS 0 0 0 0 0 0 0 0 1 1 1 1 0 0 0 0
SURF 17
  TYPE STANDARD
  FIMP 
  CURV 2.116446908929289425E-02 0 0 0 0 ""
  HIDE 0 0 0 0 0 0 0 0 0 0
  MIRR 2 0
  SLAB 20
  DISZ 1.00E+01
  GLAS K-FK5 0 0 1.50E+00 4.00E+01 0 0 0 0 0 0 
  DIAM 2.006754865683E+01 0 0 0 1 ""
  MEMA 2.006754865683E+01 0 0 0 1 ""
  POPS 0 0 0 0 0 0 0 0 1 1 1 1 0 0 0 0
SURF 18
  TYPE STANDARD
  FIMP 
  CURV -7.793442597398549283E-03 0 0 0 0 ""
  HIDE 0 0 0 0 0 0 0 0 0 0
  MIRR 2 0
  SLAB 19
  DISZ 1.10E+00
  DIAM 1.985932987038E+01 0 0 0 1 ""
  MEMA 2.006754865683E+01 0 0 0 1 ""
  POPS 0 0 0 0 0 0 0 0 1 1 1 1 0 0 0 0
SURF 19
  TYPE STANDARD
  FIMP 
  CURV 5.896459353052272258E-04 0 0 0 0 ""
  HIDE 0 0 0 0 0 0 0 0 0 0
  MIRR 2 0
  SLAB 18
  DISZ 1.70E+00
  GLAS K-SFLD6 0 0 1.50E+00 4.00E+01 0 0 0 0 0 0 
  DIAM 1.942611240486E+01 0 0 0 1 ""
  MEMA 1.942611240486E+01 0 0 0 1 ""
  POPS 0 0 0 0 0 0 0 0 1 1 1 1 0 0 0 0
SURF 20
  TYPE STANDARD
  FIMP 
  CURV 1.007465318006427711E-02 0 0 0 0 ""
  HIDE 0 0 0 0 0 0 0 0 0 0
  MIRR 2 0
  SLAB 17
  DISZ 2.350E+01
  DIAM 1.910944529120E+01 0 0 0 1 ""
  MEMA 1.942611240486E+01 0 0 0 1 ""
  POPS 0 0 0 0 0 0 0 0 1 1 1 1 0 0 0 0
SURF 21
  TYPE STANDARD
  FIMP 
  CURV 1.436616480864268304E-02 0 0 0 0 ""
  HIDE 0 0 0 0 0 0 0 0 0 0
  MIRR 2 0
  SLAB 8
  DISZ 7.00E+00
  GLAS S-FTM16 0 0 1.50E+00 4.00E+01 0 0 0 0 0 0 
  DIAM 1.887518208057E+01 0 0 0 1 ""
  MEMA 1.887518208057E+01 0 0 0 1 ""
  POPS 0 0 0 0 0 0 0 0 1 1 1 1 0 0 0 0
SURF 22
  TYPE STANDARD
  FIMP 
  CURV -5.088929034884608939E-03 0 0 0 0 ""
  HIDE 0 0 0 0 0 0 0 0 0 0
  MIRR 2 0
  SLAB 7
  DISZ 7.90E+00
  DIAM 1.849021308775E+01 0 0 0 1 ""
  MEMA 1.887518208057E+01 0 0 0 1 ""
  POPS 0 0 0 0 0 0 0 0 1 1 1 1 0 0 0 0
SURF 23
  TYPE STANDARD
  FIMP 
  CURV -2.153872663048160552E-02 0 0 0 0 ""
  HIDE 0 0 0 0 0 0 0 0 0 0
  MIRR 2 0
  SLAB 6
  DISZ 2.250E+00
  GLAS S-LAL10 0 0 1.50E+00 4.00E+01 0 0 0 0 0 0 
  DIAM 1.719887544133E+01 0 0 0 1 ""
  MEMA 1.740342255013E+01 0 0 0 1 ""
  POPS 0 0 0 0 0 0 0 0 1 1 1 1 0 0 0 0
SURF 24
  TYPE STANDARD
  FIMP 
  CURV -1.466658453379327811E-03 0 0 0 0 ""
  HIDE 0 0 0 0 0 0 0 0 0 0
  MIRR 2 0
  SLAB 5
  DISZ 7.574090E+01
  DIAM 1.740342255013E+01 0 0 0 1 ""
  MEMA 1.740342255013E+01 0 0 0 1 ""
  POPS 0 0 0 0 0 0 0 0 1 1 1 1 0 0 0 0
SURF 25
  TYPE STANDARD
  FIMP 
  CURV 0.0 0 0 0 0 ""
  HIDE 0 0 0 0 0 0 0 0 0 0
  MIRR 2 0
  DISZ 0
  DIAM 2.10496048888E+01 0 0 0 1 ""
  MEMA 2.10496048888E+01 0 0 0 1 ""
  POPS 0 0 0 0 0 0 0 0 1 1 1 1 0 0 0 0
BLNK 
TOL TOFF   0   0              0              0   0 0 0 0
MNUM 1 1
MOFF   0   1 "" 0 0 0 1 1 0 0.0 "" 0
