VERS 161019 62 33785
MODE SEQ
NAME 
PFIL 0 0 0
LANG 0
UNIT MM X W X CM MR CPMM
ENPD 20
ENVD 20 1 0
GFAC 0 0
GCAT SCHOTT 
RAIM 0 0 1 1 0 0 0 0 0 1
PUSH 0 0 0 0 0 0
SDMA 0 1 0
OMMA 1 1
FTYP 0 0 3 1 0 0 0
ROPD 2
HYPR 0
PICB 1
XFLN 0 1 -1 0 0 0 0 0 0 0 0 0
YFLN 0 0 0 0 0 0 0 0 0 0 0 0
FWGN 1 1 1 1 1 1 1 1 1 1 1 1
VDXN 0 0 0 0 0 0 0 0 0 0 0 0
VDYN 0 0 0 0 0 0 0 0 0 0 0 0
VCXN 0 0 0 0 0 0 0 0 0 0 0 0
VCYN 0 0 0 0 0 0 0 0 0 0 0 0
VANN 0 0 0 0 0 0 0 0 0 0 0 0
WAVM 1 0.55000000000000004 1
WAVM 2 0.55000000000000004 1
WAVM 3 0.55000000000000004 1
WAVM 4 0.55000000000000004 1
WAVM 5 0.55000000000000004 1
WAVM 6 0.55000000000000004 1
WAVM 7 0.55000000000000004 1
WAVM 8 0.55000000000000004 1
WAVM 9 0.55000000000000004 1
WAVM 10 0.55000000000000004 1
WAVM 11 0.55000000000000004 1
WAVM 12 0.55000000000000004 1
WAVM 13 0.55000000000000004 1
WAVM 14 0.55000000000000004 1
WAVM 15 0.55000000000000004 1
WAVM 16 0.55000000000000004 1
WAVM 17 0.55000000000000004 1
WAVM 18 0.55000000000000004 1
WAVM 19 0.55000000000000004 1
WAVM 20 0.55000000000000004 1
WAVM 21 0.55000000000000004 1
WAVM 22 0.55000000000000004 1
WAVM 23 0.55000000000000004 1
WAVM 24 0.55000000000000004 1
PWAV 1
POLS 1 0 1 0 0 1 0
GLRS 1 0
GSTD 0 100.000 100.000 100.000 100.000 100.000 100.000 0 1 1 0 0 1 1 1 1 1 1
NSCD 100 500 0 0.001 5 9.9999999999999995e-07 0 0 0 0 0 0 1000000 0 2
COFN QF "COATING.DAT" "SCATTER_PROFILE.DAT" "ABG_DATA.DAT" "PROFILE.GRD"
COFN COATING.DAT SCATTER_PROFILE.DAT ABG_DATA.DAT PROFILE.GRD
SURF 0
  TYPE STANDARD
  FIMP 
  CURV 0.0 0 0 0 0 ""
  HIDE 0 0 0 0 0 0 0 0 0 0
  MIRR 2 0
  DISZ INFINITY
  DIAM 0 0 0 0 1 ""
  MEMA 0 0 0 0 1 ""
  POPS 0 0 0 0 0 0 0 0 1 1 1 1 0 0 0 0
SURF 1
  TYPE STANDARD
  FIMP 
  CURV 0.0 0 0 0 0 ""
  HIDE 0 0 0 0 0 0 0 0 0 0
  MIRR 2 0
  SLAB 3
  DISZ 160
  DIAM 12.792810388514814 0 0 0 1 ""
  MEMA 12.792810388514814 0 0 0 1 ""
  POPS 0 0 0 0 0 0 0 0 1 1 1 1 0 0 0 0
SURF 2
  TYPE COORDBRK
  FIMP 
  CURV 0.0 0 0.0 0.0 0
  HIDE 0 0 0 0 0 0 0 0 0 0
  MIRR 2 0
  SLAB 4
  PARM 1 0
  PARM 2 0
  PARM 3 -3.5
  PARM 4 0
  PARM 5 0
  PARM 6 0
  DISZ 0
  DIAM 0 0 0 0 1 ""
  MEMA 0 0 0 0 1 ""
  POPS 0 0 0 0 0 0 0 0 1 1 1 1 0 0 0 0
SURF 3
  STOP
  TYPE STANDARD
  FIMP 
  CURV -9.852216748768472150E-04 0 0 0 0 ""
  HIDE 0 0 0 0 0 0 0 0 0 0
  MIRR 2 0
  DISZ 0
  GLAS MIRROR 0 0 1.5 40 0 0 0 0 0 0 
  CONI -4.2779999999999996
  DIAM 10.021719313230335 0 0 0 1 ""
  MEMA 10.021719313230335 0 0 0 1 ""
  POPS 0 0 0 0 0 0 0 0 1 1 1 1 0 0 0 0
SURF 4
  TYPE COORDBRK
  FIMP 
  CURV 0.0 0 0.0 0.0 0
  HIDE 0 0 0 0 0 0 0 0 0 0
  MIRR 2 0
  SLAB 5
  PARM 1 0
  PARM 2 0
  PARM 3 -3.5
  PPAR 3 2 1.000000000000E+00 0.000000000000E+00 0
  PARM 4 0
  PARM 5 0
  PARM 6 0
  DISZ 0
  DIAM 0 0 0 0 1 ""
  MEMA 0 0 0 0 1 ""
  POPS 0 0 0 0 0 0 0 0 1 1 1 1 0 0 0 0
SURF 5
  TYPE STANDARD
  FIMP 
  CURV 0.0 0 0 0 0 ""
  HIDE 0 0 0 0 0 0 0 0 0 0
  MIRR 2 0
  SLAB 2
  DISZ -160.36000000000001
  DIAM 10.007006649378345 0 0 0 1 ""
  MEMA 10.007006649378345 0 0 0 1 ""
  POPS 0 0 0 0 0 0 0 0 1 1 1 1 0 0 0 0
SURF 6
  TYPE COORDBRK
  FIMP 
  CURV 0.0 0 0.0 0.0 0
  HIDE 0 0 0 0 0 0 0 0 0 0
  MIRR 2 0
  SLAB 7
  PARM 1 0
  PARM 2 0
  PARM 3 -3.3200000000000003
  PARM 4 0
  PARM 5 0
  PARM 6 0
  DISZ 0
  DIAM 0 0 0 0 1 ""
  MEMA 0 0 0 0 1 ""
  POPS 0 0 0 0 0 0 0 0 1 1 1 1 0 0 0 0
SURF 7
  TYPE TOROIDAL
  FIMP 
  CURV 9.562789274375549983E-04 0 0 0 0 ""
  HIDE 0 0 0 0 0 0 0 0 0 0
  MIRR 2 0
  SLAB 6
  PARM 0 0
  PARM 1 1035
  PARM 2 0
  PARM 3 0
  PARM 4 0
  PARM 5 0
  PARM 6 0
  PARM 7 0
  PARM 8 0
  XDAT 1 0.000000000000E+00 0 0 1.000000000000E+00 0.000000000000E+00 0 ""
  XDAT 2 1.000000000000E+02 0 0 1.000000000000E+00 0.000000000000E+00 0 ""
  DISZ 0
  GLAS MIRROR 0 0 1.5 40 0 0 0 0 0 0 
  DIAM 9.6451208794163481 0 0 0 1 ""
  MEMA 9.6451208794163481 0 0 0 1 ""
  POPS 0 0 0 0 0 0 0 0 1 1 1 1 0 0 0 0
SURF 8
  TYPE COORDBRK
  FIMP 
  CURV 0.0 0 0.0 0.0 0
  HIDE 0 0 0 0 0 0 0 0 0 0
  MIRR 2 0
  SLAB 8
  PARM 1 0
  PARM 2 0
  PARM 3 3.3200000000000003
  PPAR 3 6 -1.000000000000E+00 0.000000000000E+00 0
  PARM 4 0
  PARM 5 0
  PARM 6 0
  DISZ 0
  DIAM 0 0 0 0 1 ""
  MEMA 0 0 0 0 1 ""
  POPS 0 0 0 0 0 0 0 0 1 1 1 1 0 0 0 0
SURF 9
  TYPE STANDARD
  FIMP 
  CURV 0.0 0 0 0 0 ""
  HIDE 0 0 0 0 0 0 0 0 0 0
  MIRR 2 0
  SLAB 1
  DISZ 206.80004397784717
  VDSZ 0 0
  DIAM 9.6460557756729308 0 0 0 1 ""
  MEMA 9.6460557756729308 0 0 0 1 ""
  POPS 0 0 0 0 0 0 0 0 1 1 1 1 0 0 0 0
SURF 10
  TYPE COORDBRK
  FIMP 
  CURV 0.0 0 0.0 0.0 0
  HIDE 0 0 0 0 0 0 0 0 0 0
  MIRR 2 0
  SLAB 9
  PARM 1 0
  PARM 2 24.073899767516576
  VPAR 2
  PARM 3 0
  PARM 4 0
  PARM 5 0
  PARM 6 0
  DISZ 0
  DIAM 0 0 0 0 1 ""
  MEMA 0 0 0 0 1 ""
  POPS 0 0 0 0 0 0 0 0 1 1 1 1 0 0 0 0
SURF 11
  TYPE STANDARD
  FIMP 
  CURV 0.0 0 0 0 0 ""
  HIDE 0 0 0 0 0 0 0 0 0 0
  MIRR 2 0
  DISZ 0
  DIAM 5.3137812819569294 0 0 0 1 ""
  MEMA 5.3137812819569294 0 0 0 1 ""
  POPS 0 0 0 0 0 0 0 0 1 1 1 1 0 0 0 0
REAX 11 1 1 0 0 0 0 0 0 0
REAX 11 1 0 0 0 0 0 0 0 0
TOL TOFF   0   0              0              0   0 0 0 0
MNUM 1 1
MOFF   0   1 "" 0 0 0 1 1 0 0.0 "" 0
