VERS 160720 18 100027
MODE SEQ
NAME 
PFIL 0 0 0
LANG 0
UNIT MM X W X CM MR CPMM
FNUM 4.00E+00 0
ENVD 2.00E+01 1 0
GFAC 0 0
GCAT SCHOTT 
RAIM 0 0 1 1 0 0 0 0 0 1
PUSH 0 0 0 0 0 0
SDMA 0 1 0
OMMA 1 1
FTYP 0 0 2 1 0 0 0
ROPD 2
PICB 1
XFLN 0 0 0 0 0 0 0 0 0 0 0 0
YFLN 0 1 0 0 0 0 0 0 0 0 0 0
FWGN 1 1 1 1 1 1 1 1 1 1 1 1
VDXN 0 0 0 0 0 0 0 0 0 0 0 0
VDYN 0 0 0 0 0 0 0 0 0 0 0 0
VCXN 0 0 0 0 0 0 0 0 0 0 0 0
VCYN 0 0 0 0 0 0 0 0 0 0 0 0
VANN 0 0 0 0 0 0 0 0 0 0 0 0
WAVM 1 5.50E-01 1
WAVM 2 5.50E-01 1
WAVM 3 5.50E-01 1
WAVM 4 5.50E-01 1
WAVM 5 5.50E-01 1
WAVM 6 5.50E-01 1
WAVM 7 5.50E-01 1
WAVM 8 5.50E-01 1
WAVM 9 5.50E-01 1
WAVM 10 5.50E-01 1
WAVM 11 5.50E-01 1
WAVM 12 5.50E-01 1
WAVM 13 5.50E-01 1
WAVM 14 5.50E-01 1
WAVM 15 5.50E-01 1
WAVM 16 5.50E-01 1
WAVM 17 5.50E-01 1
WAVM 18 5.50E-01 1
WAVM 19 5.50E-01 1
WAVM 20 5.50E-01 1
WAVM 21 5.50E-01 1
WAVM 22 5.50E-01 1
WAVM 23 5.50E-01 1
WAVM 24 5.50E-01 1
PWAV 1
POLS 1 0 1 0 0 1 0
GLRS 2 0
GSTD 0 100.000 100.000 100.000 100.000 100.000 100.000 0 1 1 0 0 1 1 1 1 1 1
NSCD 100 500 0 1.00E-03 5 1.00E-06 0 0 0 0 0 0 1000000 0 2
COFN QF "COATING.DAT" "SCATTER_PROFILE.DAT" "ABG_DATA.DAT" "PROFILE.GRD"
COFN COATING.DAT SCATTER_PROFILE.DAT ABG_DATA.DAT PROFILE.GRD
SURF 0
  TYPE STANDARD
  FIMP 
  CURV 0.0 0 0 0 0 ""
  HIDE 0 0 0 0 0 0 0 0 0 0
  MIRR 2 0
  DISZ INFINITY
  DIAM 0 0 0 0 1 ""
  MEMA 0 0 0 0 1 ""
  POPS 0 0 0 0 0 0 0 0 1 1 1 1 0 0 0 0
SURF 1
  TYPE STANDARD
  FIMP 
  CURV 0.0 0 0 0 0 ""
  HIDE 0 0 1 0 0 0 0 0 0 0
  MIRR 2 0
  SLAB 2
  DISZ 1.60E+01
  DIAM 1.029095987097E+01 0 0 0 1 ""
  MEMA 1.029095987097E+01 0 0 0 1 ""
  POPS 0 0 0 0 0 0 0 0 1 1 1 1 0 0 0 0
SURF 2
  STOP
  TYPE STANDARD
  FIMP 
  CURV -2.187226596675415774E-02 0 0 0 0 ""
  HIDE 0 0 0 0 0 0 0 0 0 0
  MIRR 2 0
  DISZ -1.60E+01
  GLAS MIRROR 0 0 1.50E+00 4.00E+01 0 0 0 0 0 0 
  CONI -1.0E+00
  DIAM 1.003088602257E+01 0 0 0 1 ""
  MEMA 1.003088602257E+01 0 0 0 1 ""
  POPS 0 0 0 0 0 0 0 0 1 1 1 1 0 0 0 0
SURF 3
  TYPE STANDARD
  FIMP 
  CURV -5.208333333333333565E-02 0 0 0 0 ""
  HIDE 0 0 0 0 0 0 0 0 0 0
  MIRR 2 0
  SLAB 1
  DISZ 2.40350E+01
  GLAS MIRROR 0 0 1.50E+00 4.00E+01 0 0 0 0 0 0 
  CONI -3.2360E+00
  DIAM 3.336697757110E+00 0 0 0 1 ""
  MEMA 3.336697757110E+00 0 0 0 1 ""
  POPS 0 0 0 0 0 0 0 0 1 1 1 1 0 0 0 0
SURF 4
  TYPE STANDARD
  FIMP 
  CURV 0.0 0 0 0 0 ""
  HIDE 0 0 0 0 0 0 0 0 0 0
  MIRR 2 0
  DISZ 0
  DIAM 1.435181192595E+00 0 0 0 1 ""
  MEMA 1.435181192595E+00 0 0 0 1 ""
  POPS 0 0 0 0 0 0 0 0 1 1 1 1 0 0 0 0
BLNK 
TOL TOFF   0   0              0              0   0 0 0 0
MNUM 1 1
MOFF   0   1 "" 0 0 0 1 1 0 0.0 "" 0
