VERS 161019 265 33785
MODE SEQ
NAME 
PFIL 0 0 0
LANG 0
UNIT MM X W X CM MR CPMM
ENPD 20
ENVD 20 1 0
GFAC 0 0
GCAT SCHOTT 
RAIM 0 2 1 1 0 0 0 0 0 1
PUSH -97.265563180026717 38.658579811409673 0 0 0 0
SDMA 0 1 0
OMMA 1 1
FTYP 0 0 5 1 0 0 0
ROPD 2
HYPR 0
PICB 1
XFLN 0 0 0 9 -9 0 0 0 0 0 0 0
YFLN 0 1 -1 0 0 0 0 0 0 0 0 0
FWGN 1 1 1 1 1 1 1 1 1 1 1 1
VDXN 0 0 0 0 0 0 0 0 0 0 0 0
VDYN 0 0 0 0 0 0 0 0 0 0 0 0
VCXN 0 0 0 0 0 0 0 0 0 0 0 0
VCYN 0 0 0 0 0 0 0 0 0 0 0 0
VANN 0 0 0 0 0 0 0 0 0 0 0 0
WAVM 1 0.55000000000000004 1
WAVM 2 0.55000000000000004 1
WAVM 3 0.55000000000000004 1
WAVM 4 0.55000000000000004 1
WAVM 5 0.55000000000000004 1
WAVM 6 0.55000000000000004 1
WAVM 7 0.55000000000000004 1
WAVM 8 0.55000000000000004 1
WAVM 9 0.55000000000000004 1
WAVM 10 0.55000000000000004 1
WAVM 11 0.55000000000000004 1
WAVM 12 0.55000000000000004 1
WAVM 13 0.55000000000000004 1
WAVM 14 0.55000000000000004 1
WAVM 15 0.55000000000000004 1
WAVM 16 0.55000000000000004 1
WAVM 17 0.55000000000000004 1
WAVM 18 0.55000000000000004 1
WAVM 19 0.55000000000000004 1
WAVM 20 0.55000000000000004 1
WAVM 21 0.55000000000000004 1
WAVM 22 0.55000000000000004 1
WAVM 23 0.55000000000000004 1
WAVM 24 0.55000000000000004 1
PWAV 1
POLS 1 0 1 0 0 1 0
GLRS 1 0
GSTD 0 100.000 100.000 100.000 100.000 100.000 100.000 0 1 1 0 0 1 1 1 1 1 1
NSCD 100 500 0 0.001 5 9.9999999999999995e-07 0 0 0 0 0 0 1000000 0 2
COFN QF "COATING.DAT" "SCATTER_PROFILE.DAT" "ABG_DATA.DAT" "PROFILE.GRD"
COFN COATING.DAT SCATTER_PROFILE.DAT ABG_DATA.DAT PROFILE.GRD
SURF 0
  TYPE STANDARD
  FIMP 

  CURV 0.0 0 0 0 0 ""
  HIDE 0 0 0 0 0 0 0 0 0 0
  MIRR 2 0
  SLAB 19
  DISZ INFINITY
  DIAM 0 0 0 0 1 ""
  MEMA 0 0 0 0 1 ""
  POPS 0 0 0 0 0 0 0 0 1 1 1 1 0 0 0 0
SURF 1
  TYPE STANDARD
  FIMP 

  CURV 0.0 0 0 0 0 ""
  HIDE 0 0 0 0 0 0 0 0 0 0
  MIRR 2 0
  SLAB 9
  DISZ 70
  DIAM 27.1877112767189 0 0 0 1 ""
  MEMA 27.1877112767189 0 0 0 1 ""
  POPS 0 0 0 0 0 0 0 0 1 1 1 1 0 0 0 0
SURF 2
  TYPE COORDBRK
  FIMP 

  CURV 0.0 0 0.0 0.0 0
  HIDE 1 0 1 0 0 0 0 1 0 0
  MIRR 2 0
  SLAB 7
  PARM 1 0
  PARM 2 0
  PARM 3 16.440000000000001
  PARM 4 0
  PARM 5 0
  PARM 6 0
  DISZ 0
  DIAM 0 0 0 0 1 ""
  MEMA 0 0 0 0 1 ""
  POPS 0 0 0 0 0 0 0 0 1 1 1 1 0 0 0 0
SURF 3
  TYPE STANDARD
  FIMP 

  CURV 6.325110689437065704E-03 0 0 0 0 ""
  HIDE 0 0 0 0 0 0 0 0 0 0
  MIRR 2 0
  SLAB 2
  DISZ 0
  GLAS MIRROR 0 0 1.5 40 0 0 0 0 0 0 
  DIAM 15.973012364555654 0 0 0 1 ""
  MEMA 15.973012364555654 0 0 0 1 ""
  POPS 0 0 0 0 0 0 0 0 1 1 1 1 0 0 0 0
SURF 4
  TYPE COORDBRK
  FIMP 

  CURV 0.0 0 0.0 0.0 0
  HIDE 1 0 1 0 0 0 0 1 0 0
  MIRR 2 0
  SLAB 1
  PARM 1 0
  PARM 2 0
  PARM 3 16.440000000000001
  PPAR 3 2 1.000000000000E+00 0.000000000000E+00 0
  PARM 4 0
  PARM 5 0
  PARM 6 0
  DISZ 0
  DIAM 0 0 0 0 1 ""
  MEMA 0 0 0 0 1 ""
  POPS 0 0 0 0 0 0 0 0 1 1 1 1 0 0 0 0
SURF 5
  TYPE STANDARD
  FIMP 

  CURV 0.0 0 0 0 0 ""
  HIDE 0 0 0 0 0 0 0 0 0 0
  MIRR 2 0
  SLAB 3
  DISZ -71.209999999999994
  DIAM 16.003789125284751 0 0 0 1 ""
  MEMA 16.003789125284751 0 0 0 1 ""
  POPS 0 0 0 0 0 0 0 0 1 1 1 1 0 0 0 0
SURF 6
  TYPE COORDBRK
  FIMP 

  CURV 0.0 0 0.0 0.0 0
  HIDE 1 0 1 0 0 0 0 1 0 0
  MIRR 2 0
  SLAB 8
  PARM 1 0
  PARM 2 0
  PARM 3 -12
  PARM 4 0
  PARM 5 0
  PARM 6 0
  DISZ 0
  DIAM 0 0 0 0 1 ""
  MEMA 0 0 0 0 1 ""
  POPS 0 0 0 0 0 0 0 0 1 1 1 1 0 0 0 0
SURF 7
  STOP
  TYPE STANDARD
  FIMP 

  CURV 5.353319057815845473E-03 0 0 0 0 ""
  HIDE 0 0 0 0 0 0 0 0 0 0
  MIRR 2 0
  SLAB 6
  DISZ 0
  GLAS MIRROR 0 0 1.5 40 0 0 0 0 0 0 
  DIAM 20.024298845493654 0 0 0 1 ""
  MEMA 20.024298845493654 0 0 0 1 ""
  POPS 0 0 0 0 0 0 0 0 1 1 1 1 0 0 0 0
SURF 8
  TYPE COORDBRK
  FIMP 

  CURV 0.0 0 0.0 0.0 0
  HIDE 1 0 1 0 0 0 0 1 0 0
  MIRR 2 0
  SLAB 5
  PARM 1 0
  PARM 2 0
  PARM 3 -12
  PARM 4 0
  PARM 5 0
  PARM 6 0
  DISZ 0
  DIAM 0 0 0 0 1 ""
  MEMA 0 0 0 0 1 ""
  POPS 0 0 0 0 0 0 0 0 1 1 1 1 0 0 0 0
SURF 9
  TYPE STANDARD
  FIMP 

  CURV 0.0 0 0 0 0 ""
  HIDE 0 0 0 0 0 0 0 0 0 0
  MIRR 2 0
  SLAB 4
  DISZ 74.25
  DIAM 19.835525602420098 0 0 0 1 ""
  MEMA 19.835525602420098 0 0 0 1 ""
  POPS 0 0 0 0 0 0 0 0 1 1 1 1 0 0 0 0
SURF 10
  TYPE COORDBRK
  FIMP 

  CURV 0.0 0 0.0 0.0 0
  HIDE 1 0 1 0 0 0 0 1 0 0
  MIRR 2 0
  SLAB 13
  PARM 1 0
  PARM 2 0
  PARM 3 15.939999999989485
  PARM 4 0
  PARM 5 0
  PARM 6 0
  DISZ 0
  DIAM 0 0 0 0 1 ""
  MEMA 0 0 0 0 1 ""
  POPS 0 0 0 0 0 0 0 0 1 1 1 1 0 0 0 0
SURF 11
  TYPE STANDARD
  FIMP 

  CURV 2.963841138114997349E-03 0 0 0 0 ""
  HIDE 0 0 0 0 0 0 0 0 0 0
  MIRR 2 0
  SLAB 12
  DISZ 0
  GLAS MIRROR 0 0 1.5 40 0 0 0 0 0 0 
  DIAM 19.349742812604678 0 0 0 1 ""
  MEMA 19.349742812604678 0 0 0 1 ""
  POPS 0 0 0 0 0 0 0 0 1 1 1 1 0 0 0 0
SURF 12
  TYPE COORDBRK
  FIMP 

  CURV 0.0 0 0.0 0.0 0
  HIDE 1 0 0 0 0 0 0 1 0 0
  MIRR 2 0
  SLAB 11
  PARM 1 0
  PARM 2 0
  PARM 3 15.939999999989485
  PARM 4 0
  PARM 5 0
  PARM 6 0
  DISZ 0
  DIAM 0 0 0 0 1 ""
  MEMA 0 0 0 0 1 ""
  POPS 0 0 0 0 0 0 0 0 1 1 1 1 0 0 0 0
SURF 13
  TYPE STANDARD
  FIMP 

  CURV 0.0 0 0 0 0 ""
  HIDE 0 0 0 0 0 0 0 0 0 0
  MIRR 2 0
  SLAB 10
  DISZ -111.40000000000001
  DIAM 19.419721923660539 0 0 0 1 ""
  MEMA 19.419721923660539 0 0 0 1 ""
  POPS 0 0 0 0 0 0 0 0 1 1 1 1 0 0 0 0
SURF 14
  TYPE COORDBRK
  FIMP 

  CURV 0.0 0 0.0 0.0 0
  HIDE 1 0 1 0 0 0 0 1 0 0
  MIRR 2 0
  SLAB 16
  PARM 1 0
  PARM 2 0
  PARM 3 -5.9999999994997468
  PARM 4 0
  PARM 5 0
  PARM 6 0
  DISZ 0
  DIAM 0 0 0 0 1 ""
  MEMA 0 0 0 0 1 ""
  POPS 0 0 0 0 0 0 0 0 1 1 1 1 0 0 0 0
SURF 15
  TYPE STANDARD
  FIMP 

  CURV 4.182350480970305727E-03 0 0 0 0 ""
  HIDE 0 0 0 0 0 0 0 0 0 0
  MIRR 2 0
  SLAB 15
  DISZ 0
  GLAS MIRROR 0 0 1.5 40 0 0 0 0 0 0 
  DIAM 32.620972602832602 0 0 0 1 ""
  MEMA 32.620972602832602 0 0 0 1 ""
  POPS 0 0 0 0 0 0 0 0 1 1 1 1 0 0 0 0
SURF 16
  TYPE COORDBRK
  FIMP 

  CURV 0.0 0 0.0 0.0 0
  HIDE 1 0 1 0 0 0 0 1 0 0
  MIRR 2 0
  SLAB 14
  PARM 1 0
  PARM 2 0
  PARM 3 -5.9999999994997468
  PARM 4 0
  PARM 5 0
  PARM 6 0
  DISZ 0
  DIAM 0 0 0 0 1 ""
  MEMA 0 0 0 0 1 ""
  POPS 0 0 0 0 0 0 0 0 1 1 1 1 0 0 0 0
SURF 17
  TYPE STANDARD
  FIMP 

  CURV 0.0 0 0 0 0 ""
  HIDE 0 0 0 0 0 0 0 0 0 0
  MIRR 2 0
  SLAB 3
  DISZ 121.40000000000001
  DIAM 32.958734409641586 0 0 0 1 ""
  MEMA 32.958734409641586 0 0 0 1 ""
  POPS 0 0 0 0 0 0 0 0 1 1 1 1 0 0 0 0
SURF 18
  TYPE COORDBRK
  FIMP 

  CURV 0.0 0 0.0 0.0 0
  HIDE 0 0 0 0 0 0 0 0 0 0
  MIRR 2 0
  SLAB 17
  PARM 1 0
  PARM 2 0
  PARM 3 0
  PARM 4 0
  PARM 5 0
  PARM 6 0
  DISZ 0
  DIAM 0 0 0 0 1 ""
  MEMA 0 0 0 0 1 ""
  POPS 0 0 0 0 0 0 0 0 1 1 1 1 0 0 0 0
SURF 19
  TYPE STANDARD
  FIMP 

  CURV 0.0 0 0 0 0 ""
  HIDE 0 0 0 0 0 0 0 0 0 0
  MIRR 2 0
  SLAB 20
  DISZ 0.0015828918493983074
  VDSZ 0 0
  DIAM 14.379584731482783 0 0 0 1 ""
  MEMA 14.379584731482783 0 0 0 1 ""
  POPS 0 0 0 0 0 0 0 0 1 1 1 1 0 0 0 0
SURF 20
  TYPE STANDARD
  FIMP 

  CURV 0.0 0 0 0 0 ""
  HIDE 0 0 0 0 0 0 0 0 0 0
  MIRR 2 0
  SLAB 18
  DISZ 0
  DIAM 14.379342485228985 0 0 0 1 ""
  MEMA 14.379342485228985 0 0 0 1 ""
  POPS 0 0 0 0 0 0 0 0 1 1 1 1 0 0 0 0
GLCB 3 1 0 0 0 0 0 0 0 0
GLCB 7 1 0 0 0 0 0 0 0 0
GLCB 11 1 0 0 0 0 0 0 0 0
GLCB 15 1 0 0 0 0 0 0 0 0
BLNK 
ACOS 1 1 0 0 0 0 0 0 0 0
ACOS 2 1 0 0 0 0 0 0 0 0
ACOS 3 1 0 0 0 0 114.81999999999999 0 0 0
ACOS 4 1 0 0 0 0 124.76000000000001 0 0 0
BLNK 
REAX 20 1 1 0 0 0 0 0 0 0
DMFS 0 0 0 0 0 0 0 0 0 0
BLNK Sequential merit function: RMS spot radius centroid GQ 3 rings 6 arms
BLNK No air or glass constraints.
BLNK Operands for field 1.
TRAC 0 1 0 0 0.16785534350986436 0.29073398328101197 0 0.14544410433286004 0 0
TRAC 0 1 0 0 0.35355339059327373 0.61237243569579458 0 0.23271056693257725 0 0
TRAC 0 1 0 0 0.47098257255994658 0.81576574515332312 0 0.14544410433286004 0 0
TRAC 0 1 0 0 0.33571068701972878 0 0 0.14544410433286004 0 0
TRAC 0 1 0 0 0.70710678118654757 0 0 0.23271056693257725 0 0
TRAC 0 1 0 0 0.94196514511989338 0 0 0.14544410433286004 0 0
TRAC 0 1 0 0 0.16785534350986436 -0.29073398328101197 0 0.14544410433286004 0 0
TRAC 0 1 0 0 0.35355339059327373 -0.61237243569579458 0 0.23271056693257725 0 0
TRAC 0 1 0 0 0.47098257255994658 -0.81576574515332312 0 0.14544410433286004 0 0
TRAC 0 1 0 0 -0.16785534350986447 -0.29073398328101191 0 0.14544410433286004 0 0
TRAC 0 1 0 0 -0.35355339059327395 -0.61237243569579458 0 0.23271056693257725 0 0
TRAC 0 1 0 0 -0.47098257255994691 -0.81576574515332301 0 0.14544410433286004 0 0
TRAC 0 1 0 0 -0.33571068701972878 2.5705828564379909e-16 0 0.14544410433286004 0 0
TRAC 0 1 0 0 -0.70710678118654757 5.4144137784996071e-16 0 0.23271056693257725 0 0
TRAC 0 1 0 0 -0.94196514511989338 7.2127565401724108e-16 0 0.14544410433286004 0 0
TRAC 0 1 0 0 -0.16785534350986425 0.29073398328101197 0 0.14544410433286004 0 0
TRAC 0 1 0 0 -0.35355339059327351 0.61237243569579469 0 0.23271056693257725 0 0
TRAC 0 1 0 0 -0.4709825725599463 0.81576574515332312 0 0.14544410433286004 0 0
TOL TOFF   0   0              0              0   0 0 0 0
MNUM 1 1
MOFF   0   1 "" 0 0 0 1 1 0 0.0 "" 0
