VERS 140730 195 26155
MODE SEQ
NAME Original Double Gauss
NOTE 0 From U.S. Patent 583336, example 2.  Nearest modern Schott glasses chosen.
PFIL 0 0 0
LANG 0
UNIT MM X W X CM MR CPMM
FNUM 4.5 0
ENVD 2.0E+1 1 0
GFAC 0 0
GCAT SCHOTT
RAIM 0 2 1 1 0 1 0 0 0
PUSH 0 0 0 0 0 0
SDMA 0 1 0
FTYP 0 0 3 3 0 0 0
ROPD 2
PICB 1
XFLN 0 0 0 0 0 0 0 0 0 0 0 0
YFLN 0 1.7E+1 2.4E+1 0 0 0 0 0 0 0 0 0
FWGN 1 1 1 1 1 1 1 1 1 1 1 1
VDXN 0 0 0 0 0 0 0 0 0 0 0 0
VDYN 0 6.208442661354E-2 5.473246586901E-2 0 0 0 0 0 0 0 0 0
VCXN 0 2.455956935883E-3 2.0477435112E-3 0 0 0 0 0 0 0 0 0
VCYN 0 1.556542586327E-1 3.64762539196E-1 0 0 0 0 0 0 0 0 0
VANN 0 0 0 0 0 0 0 0 0 0 0 0
WAVM 1 4.861327E-1 1
WAVM 2 5.875618E-1 1
WAVM 3 6.562725E-1 1
WAVM 4 5.5E-1 1
WAVM 5 5.5E-1 1
WAVM 6 5.5E-1 1
WAVM 7 5.5E-1 1
WAVM 8 5.5E-1 1
WAVM 9 5.5E-1 1
WAVM 10 5.5E-1 1
WAVM 11 5.5E-1 1
WAVM 12 5.5E-1 1
WAVM 13 5.5E-1 1
WAVM 14 5.5E-1 1
WAVM 15 5.5E-1 1
WAVM 16 5.5E-1 1
WAVM 17 5.5E-1 1
WAVM 18 5.5E-1 1
WAVM 19 5.5E-1 1
WAVM 20 5.5E-1 1
WAVM 21 5.5E-1 1
WAVM 22 5.5E-1 1
WAVM 23 5.5E-1 1
WAVM 24 5.5E-1 1
PWAV 2
POLS 1 0 1 0 0 1 0
GLRS 7 0
GSTD 0 100.000 100.000 100.000 100.000 100.000 100.000 0 1 1 0 0 1 1 1 1 1 1
NSCD 100 500 0 1.0E-3 5 1.0E-6 0 0 0 0 0 0 1000000 0 2
COFN QF "COATING.DAT" "SCATTER_PROFILE.DAT" "ABG_DATA.DAT" "PROFILE.GRD"
COFN COATING.DAT SCATTER_PROFILE.DAT ABG_DATA.DAT PROFILE.GRD
SURF 0
  TYPE STANDARD
  CURV 0.0 0 0 0 0 ""
  HIDE 0 0 0 0 0 0 0 0 0 0
  MIRR 2 0
  SLAB 1
  DISZ INFINITY
  DIAM 0 0 0 0 1 ""
  POPS 0 0 0 0 0 0 0 0 1 1 1 1 0 0 0 0
SURF 1
  TYPE STANDARD
  CURV 0.0 0 0 0 0 ""
  HIDE 0 0 0 0 0 0 0 0 0 0
  MIRR 2 0
  SLAB 14
  DISZ 4.5
  DIAM 8.97749980848 0 0 0 1 ""
  POPS 0 0 0 0 0 0 0 0 1 1 1 1 0 0 0 0
SURF 2
  TYPE STANDARD
  CURV 7.061398863114783100E-002 0 0 0 0 ""
  HIDE 0 0 0 0 0 0 0 0 0 0
  MIRR 2 0
  SLAB 6
  DISZ 1.386
  GLAS N-BAK1 0 0 1.572500121386 5.754930998742E+1 2.0E-4 1 1 1 0 0 
  DIAM 6.3 1 0 0 1 ""
  POPS 0 0 0 0 0 0 0 0 1 1 1 1 0 0 0 0
  FLAP 0 6.3 0
SURF 3
  TYPE STANDARD
  CURV 1.440756108805901400E-002 0 0 0 0 ""
  HIDE 0 0 0 0 0 0 0 0 0 0
  MIRR 2 0
  SLAB 5
  DISZ 1.17E-1
  DIAM 6.3 1 0 0 1 ""
  POPS 0 0 0 0 0 0 0 0 1 1 1 1 0 0 0 0
  FLAP 0 6.3 0
SURF 4
  TYPE STANDARD
  CURV 6.174554660245130200E-002 0 0 0 0 ""
  HIDE 0 0 0 0 0 0 0 0 0 0
  MIRR 2 0
  SLAB 8
  DISZ 2.313
  GLAS N-BAK1 0 0 1.572500121386 5.754930998742E+1 2.0E-4 1 1 1 0 0 
  DIAM 5.94 1 0 0 1 ""
  POPS 0 0 0 0 0 0 0 0 1 1 1 1 0 0 0 0
  FLAP 0 5.94 0
SURF 5
  TYPE STANDARD
  CURV -5.085176709890669400E-002 0 0 0 0 ""
  HIDE 0 0 0 0 0 0 0 0 0 0
  MIRR 2 0
  SLAB 7
  DISZ 1.386
  GLAS N-BALF4 0 0 1.579559355877 5.386589845464E+1 -1.2E-3 1 1 1 0 0 
  DIAM 5.94 1 0 0 1 ""
  POPS 0 0 0 0 0 0 0 0 1 1 1 1 0 0 0 0
  FLAP 0 5.94 0
SURF 6
  TYPE STANDARD
  CURV 1.137268281587626600E-001 0 0 0 0 ""
  HIDE 0 0 0 0 0 0 0 0 0 0
  MIRR 2 0
  SLAB 4
  DISZ 2.313
  DIAM 4.5 1 0 0 1 ""
  POPS 0 0 0 0 0 0 0 0 1 1 1 1 0 0 0 0
  FLAP 0 4.5 0
SURF 7
  STOP
  TYPE STANDARD
  CURV 0.0 0 0 0 0 ""
  HIDE 0 0 0 0 0 0 0 0 0 0
  MIRR 2 0
  SLAB 2
  DISZ 2.313
  PZUP 6.0 1 0 0
  DIAM 4.215000499256 0 0 0 1 ""
  POPS 0 0 0 0 0 0 0 0 1 1 1 1 0 0 0 0
SURF 8
  TYPE STANDARD
  CURV -1.137268281587626600E-001 4 6.0 -1. 0 ""
  HIDE 0 0 0 0 0 0 0 0 0 0
  MIRR 2 0
  SLAB 13
  DISZ 1.386
  GLAS N-BALF4 2 5 1.579559355877 5.386589845464E+1 -1.2E-3 0 0 0 0 0 
  PZUP 5.0 1 0 0
  DIAM 4.5 2 6 0 1 ""
  POPS 0 0 0 0 0 0 0 0 1 1 1 1 0 0 0 0
  FLAP 0 4.5 0
SURF 9
  TYPE STANDARD
  CURV 5.085176709890669400E-002 4 5.0 -1. 0 ""
  HIDE 0 0 0 0 0 0 0 0 0 0
  MIRR 2 0
  SLAB 12
  DISZ 2.313
  GLAS N-BAK1 2 4 1.572500121386 5.754930998742E+1 2.0E-4 0 0 0 0 0 
  PZUP 4.0 1 0 0
  DIAM 5.94 2 5 0 1 ""
  POPS 0 0 0 0 0 0 0 0 1 1 1 1 0 0 0 0
  FLAP 0 5.94 0
SURF 10
  TYPE STANDARD
  CURV -6.174554660245130200E-002 4 4.0 -1. 0 ""
  HIDE 0 0 0 0 0 0 0 0 0 0
  MIRR 2 0
  SLAB 11
  DISZ 1.17E-1
  PZUP 3.0 1 0 0
  DIAM 5.94 2 4 0 1 ""
  POPS 0 0 0 0 0 0 0 0 1 1 1 1 0 0 0 0
  FLAP 0 5.94 0
SURF 11
  TYPE STANDARD
  CURV -1.440756108805901400E-002 4 3.0 -1. 0 ""
  HIDE 0 0 0 0 0 0 0 0 0 0
  MIRR 2 0
  SLAB 10
  DISZ 1.386
  GLAS N-BAK1 2 2 1.572500121386 5.754930998742E+1 2.0E-4 0 0 0 0 0 
  PZUP 2 1 0 0
  DIAM 6.3 2 3 0 1 ""
  POPS 0 0 0 0 0 0 0 0 1 1 1 1 0 0 0 0
  FLAP 0 6.3 0
SURF 12
  TYPE STANDARD
  CURV -7.061398863114783100E-002 4 2 -1. 0 ""
  HIDE 0 0 0 0 0 0 0 0 0 0
  MIRR 2 0
  SLAB 9
  DISZ 4.235170011441E+1
  MAZH 0 7.0E-1
  DIAM 6.3 2 2 0 1 ""
  POPS 0 0 0 0 0 0 0 0 1 1 1 1 0 0 0 0
  FLAP 0 6.3 0
SURF 13
  TYPE STANDARD
  CURV 0.0 0 0 0 0 ""
  HIDE 0 0 0 0 0 0 0 0 0 0
  MIRR 2 0
  SLAB 3
  DISZ 0
  DIAM 2.26142390559E+1 0 0 0 1 ""
  POPS 0 0 0 0 0 0 0 0 1 1 1 1 0 0 0 0
REAY 13 2 0 1 0 0 2.254E+1 0 0 0
EFLY 2 13 0 0 0 0 4.94E+1 9.9E+1 0 0
TOL TOFF   0   0              0              0   0 0 0
MNUM 1 1
MOFF   0   1 "" 0 0 0 1 1 0 0.0 ""
