VERS 140730 201 26155
MODE SEQ
NAME 
NOTE 0 The MIT License (MIT)
NOTE 4
NOTE 0 
NOTE 4
NOTE 0  Copyright (c) 2014, Daniel J. Reiley
NOTE 4
NOTE 0 
NOTE 4
NOTE 0  Permission is hereby granted, free of charge, to any person obtaining a copy of this software and associated documentation files (the "Software"), to deal in the Software without restriction, includi
NOTE 0 ng without limitation the rights to use, copy, modify, merge, publish, distribute, sublicense, and/or sell copies of the Software, and to permit persons to whom the Software is furnished to do so, sub
NOTE 0 ject to the following conditions:
NOTE 4
NOTE 0 
NOTE 4
NOTE 0 The above copyright notice and this permission notice shall be included in all copies or substantial portions of the Software.
NOTE 4
NOTE 0 
NOTE 4
NOTE 0  THE SOFTWARE IS PROVIDED "AS IS", WITHOUT WARRANTY OF ANY KIND, EXPRESS OR IMPLIED, INCLUDING BUT NOT LIMITED TO THE WARRANTIES OF MERCHANTABILITY, FITNESS FOR A PARTICULAR PURPOSE AND NONINFRINGEMEN
NOTE 0 T. IN NO EVENT SHALL THE AUTHORS OR COPYRIGHT HOLDERS BE LIABLE FOR ANY CLAIM, DAMAGES OR OTHER LIABILITY, WHETHER IN AN ACTION OF CONTRACT, TORT OR OTHERWISE, ARISING FROM, OUT OF OR IN CONNECTION WI
NOTE 0 TH THE SOFTWARE OR THE USE OR OTHER DEALINGS IN THE SOFTWARE.
NOTE 4
NOTE 0 
NOTE 4
PFIL 0 0 0
LANG 0
UNIT MM X W X CM MR CPMM
OBNA 1.5E-1 0
ENVD 2.0E+1 1 0
GFAC 0 0
GCAT SCHOTT MISC
RAIM 0 0 1 1 0 1 0 0 0
PUSH 0 0 0 0 0 0
SDMA 0 1 0
FTYP 3 1 3 1 0 0 0
ROPD 2
PICB 1
XFLN 0 0 0 0 0 0 0 0 0 0 0 0
YFLN 0 8.0 1.2E+1 0 0 0 0 0 0 0 0 0
FWGN 1 1 1 1 1 1 1 1 1 1 1 1
VDXN 0 0 0 0 0 0 0 0 0 0 0 0
VDYN 0 0 0 0 0 0 0 0 0 0 0 0
VCXN 0 0 0 0 0 0 0 0 0 0 0 0
VCYN 0 0 0 0 0 0 0 0 0 0 0 0
VANN 0 0 0 0 0 0 0 0 0 0 0 0
WAVM 1 2.48E-1 1
WAVM 2 5.5E-1 1
WAVM 3 5.5E-1 1
WAVM 4 5.5E-1 1
WAVM 5 5.5E-1 1
WAVM 6 5.5E-1 1
WAVM 7 5.5E-1 1
WAVM 8 5.5E-1 1
WAVM 9 5.5E-1 1
WAVM 10 5.5E-1 1
WAVM 11 5.5E-1 1
WAVM 12 5.5E-1 1
WAVM 13 5.5E-1 1
WAVM 14 5.5E-1 1
WAVM 15 5.5E-1 1
WAVM 16 5.5E-1 1
WAVM 17 5.5E-1 1
WAVM 18 5.5E-1 1
WAVM 19 5.5E-1 1
WAVM 20 5.5E-1 1
WAVM 21 5.5E-1 1
WAVM 22 5.5E-1 1
WAVM 23 5.5E-1 1
WAVM 24 5.5E-1 1
PWAV 1
POLS 1 0 1 0 0 1 0
GLRS 20 0
GSTD 0 100.000 100.000 100.000 100.000 100.000 100.000 0 1 1 0 0 1 1 1 1 1 1
NSCD 100 500 0 1.0E-3 5 1.0E-6 0 0 0 0 0 0 1000000 0 2
COFN QF "COATING.DAT" "SCATTER_PROFILE.DAT" "ABG_DATA.DAT" "PROFILE.GRD"
COFN COATING.DAT SCATTER_PROFILE.DAT ABG_DATA.DAT PROFILE.GRD
SURF 0
  TYPE STANDARD
  CURV 0.0 0 0 0 0 ""
  HIDE 0 0 0 0 0 0 0 0 0 0
  MIRR 2 0
  SLAB 1
  DISZ 1.108588354359E+2
  VDSZ 0 0
  DIAM 4.799458807792E+1 0 0 0 1 ""
  POPS 0 0 0 0 0 0 0 0 1 1 1 1 0 0 0 0
SURF 1
  TYPE STANDARD
  CURV -1.355408969581505100E-003 0 0 0 0 ""
  HIDE 0 0 0 0 0 0 0 0 0 0
  MIRR 2 0
  SLAB 22
  DISZ 2.7484E+1
  GLAS SILICA 0 0 1.5 4.0E+1 0 0 0 0 0 0 
  DIAM 6.438663937029E+1 0 0 0 1 ""
  POPS 0 0 0 0 0 0 0 0 1 1 1 1 0 0 0 0
SURF 2
  TYPE STANDARD
  CURV -4.250090633182752500E-003 0 0 0 0 ""
  HIDE 0 0 0 0 0 0 0 0 0 0
  MIRR 2 0
  SLAB 21
  DISZ 9.16E-1
  DIAM 6.705649700237E+1 0 0 0 1 ""
  POPS 0 0 0 0 0 0 0 0 1 1 1 1 0 0 0 0
SURF 3
  TYPE STANDARD
  CURV 4.735328295575404000E-003 0 0 0 0 ""
  HIDE 0 0 0 0 0 0 0 0 0 0
  MIRR 2 0
  SLAB 20
  DISZ 3.6646E+1
  GLAS SILICA 0 0 1.5 4.0E+1 0 0 0 0 0 0 
  DIAM 6.808158477922E+1 0 0 0 1 ""
  POPS 0 0 0 0 0 0 0 0 1 1 1 1 0 0 0 0
SURF 4
  TYPE STANDARD
  CURV -2.167323437912469000E-003 0 0 0 0 ""
  HIDE 0 0 0 0 0 0 0 0 0 0
  MIRR 2 0
  SLAB 19
  DISZ 9.16E-1
  DIAM 6.636904457464E+1 0 0 0 1 ""
  POPS 0 0 0 0 0 0 0 0 1 1 1 1 0 0 0 0
SURF 5
  TYPE STANDARD
  CURV 2.423197952494658000E-003 0 0 0 0 ""
  HIDE 0 0 0 0 0 0 0 0 0 0
  MIRR 2 0
  SLAB 18
  DISZ 2.1071E+1
  GLAS SILICA 0 0 1.5 4.0E+1 0 0 0 0 0 0 
  DIAM 6.416351549816E+1 0 0 0 1 ""
  POPS 0 0 0 0 0 0 0 0 1 1 1 1 0 0 0 0
SURF 6
  TYPE STANDARD
  CURV 6.229012122280491200E-003 0 0 0 0 ""
  HIDE 0 0 0 0 0 0 0 0 0 0
  MIRR 2 0
  SLAB 17
  DISZ 1.6197E+1
  DIAM 5.900127344572E+1 0 0 0 1 ""
  POPS 0 0 0 0 0 0 0 0 1 1 1 1 0 0 0 0
SURF 7
  TYPE STANDARD
  CURV -1.655277529624088200E-003 0 0 0 0 ""
  HIDE 0 0 0 0 0 0 0 0 0 0
  MIRR 2 0
  SLAB 16
  DISZ 7.215
  GLAS SILICA 0 0 1.5 4.0E+1 0 0 0 0 0 0 
  DIAM 5.881584948835E+1 0 0 0 1 ""
  POPS 0 0 0 0 0 0 0 0 1 1 1 1 0 0 0 0
SURF 8
  TYPE STANDARD
  CURV 4.583209777636411400E-003 0 0 0 0 ""
  HIDE 0 0 0 0 0 0 0 0 0 0
  MIRR 2 0
  SLAB 15
  DISZ 2.3941E+1
  DIAM 5.8358909689E+1 0 0 0 1 ""
  POPS 0 0 0 0 0 0 0 0 1 1 1 1 0 0 0 0
SURF 9
  TYPE STANDARD
  CURV -2.788573429970416100E-004 0 0 0 0 ""
  HIDE 0 0 0 0 0 0 0 0 0 0
  MIRR 2 0
  SLAB 14
  DISZ 1.1978E+1
  GLAS SILICA 0 0 1.5 4.0E+1 0 0 0 0 0 0 
  DIAM 5.998393015623E+1 0 0 0 1 ""
  POPS 0 0 0 0 0 0 0 0 1 1 1 1 0 0 0 0
SURF 10
  TYPE STANDARD
  CURV 3.971140924672222200E-003 0 0 0 0 ""
  HIDE 0 0 0 0 0 0 0 0 0 0
  MIRR 2 0
  SLAB 13
  DISZ 4.7506E+1
  DIAM 6.149220522015E+1 0 0 0 1 ""
  POPS 0 0 0 0 0 0 0 0 1 1 1 1 0 0 0 0
SURF 11
  TYPE STANDARD
  CURV -1.172584505233830900E-002 0 0 0 0 ""
  HIDE 0 0 0 0 0 0 0 0 0 0
  MIRR 2 0
  SLAB 12
  DISZ 1.1961E+1
  GLAS SILICA 0 0 1.5 4.0E+1 0 0 0 0 0 0 
  DIAM 6.422906941428E+1 0 0 0 1 ""
  POPS 0 0 0 0 0 0 0 0 1 1 1 1 0 0 0 0
SURF 12
  TYPE STANDARD
  CURV 1.709811771951461200E-003 0 0 0 0 ""
  HIDE 0 0 0 0 0 0 0 0 0 0
  MIRR 2 0
  SLAB 11
  DISZ 9.968
  DIAM 8.840193588385E+1 0 0 0 1 ""
  POPS 0 0 0 0 0 0 0 0 1 1 1 1 0 0 0 0
SURF 13
  TYPE STANDARD
  CURV 2.454107574823899600E-004 0 0 0 0 ""
  HIDE 0 0 0 0 0 0 0 0 0 0
  MIRR 2 0
  SLAB 10
  DISZ 3.5291E+1
  GLAS SILICA 0 0 1.5 4.0E+1 0 0 0 0 0 0 
  DIAM 9.403954310133E+1 0 0 0 1 ""
  POPS 0 0 0 0 0 0 0 0 1 1 1 1 0 0 0 0
SURF 14
  TYPE STANDARD
  CURV -6.172134663634091400E-003 0 0 0 0 ""
  HIDE 0 0 0 0 0 0 0 0 0 0
  MIRR 2 0
  SLAB 9
  DISZ 9.23E-1
  DIAM 9.576619664066E+1 0 0 0 1 ""
  POPS 0 0 0 0 0 0 0 0 1 1 1 1 0 0 0 0
SURF 15
  TYPE STANDARD
  CURV 1.588451323497642800E-003 0 0 0 0 ""
  HIDE 0 0 0 0 0 0 0 0 0 0
  MIRR 2 0
  SLAB 8
  DISZ 4.1227E+1
  GLAS SILICA 0 0 1.5 4.0E+1 0 0 0 0 0 0 
  DIAM 1.193060466085E+2 0 0 0 1 ""
  POPS 0 0 0 0 0 0 0 0 1 1 1 1 0 0 0 0
SURF 16
  TYPE STANDARD
  CURV -4.410343667209579800E-003 0 0 0 0 ""
  HIDE 0 0 0 0 0 0 0 0 0 0
  MIRR 2 0
  SLAB 7
  DISZ 9.16E-1
  DIAM 1.184252812325E+2 0 0 0 1 ""
  POPS 0 0 0 0 0 0 0 0 1 1 1 1 0 0 0 0
SURF 17
  TYPE STANDARD
  CURV 1.914704142787912500E-003 0 0 0 0 ""
  HIDE 0 0 0 0 0 0 0 0 0 0
  MIRR 2 0
  SLAB 6
  DISZ 2.7842E+1
  GLAS SILICA 0 0 1.5 4.0E+1 0 0 0 0 0 0 
  DIAM 1.2211903648E+2 0 0 0 1 ""
  POPS 0 0 0 0 0 0 0 0 1 1 1 1 0 0 0 0
SURF 18
  TYPE STANDARD
  CURV -1.716962213095614300E-003 0 0 0 0 ""
  HIDE 0 0 0 0 0 0 0 0 0 0
  MIRR 2 0
  SLAB 5
  DISZ 9.16E-1
  DIAM 1.221058411015E+2 0 0 0 1 ""
  POPS 0 0 0 0 0 0 0 0 1 1 1 1 0 0 0 0
SURF 19
  TYPE STANDARD
  CURV 2.359998961600457100E-003 0 0 0 0 ""
  HIDE 0 0 0 0 0 0 0 0 0 0
  MIRR 2 0
  SLAB 4
  DISZ 2.2904E+1
  GLAS SILICA 0 0 1.5 4.0E+1 0 0 0 0 0 0 
  DIAM 1.172138397374E+2 0 0 0 1 ""
  POPS 0 0 0 0 0 0 0 0 1 1 1 1 0 0 0 0
SURF 20
  STOP
  TYPE STANDARD
  CURV -7.218340359184616500E-004 0 0 0 0 ""
  HIDE 0 0 0 0 0 0 0 0 0 0
  MIRR 2 0
  SLAB 2
  DISZ 9.16E-1
  DIAM 1.169241558679E+2 0 0 0 1 ""
  POPS 0 0 0 0 0 0 0 0 1 1 1 1 0 0 0 0
SURF 21
  TYPE STANDARD
  CURV 4.716113545149713600E-003 0 0 0 0 ""
  HIDE 0 0 0 0 0 0 0 0 0 0
  MIRR 2 0
  SLAB 38
  DISZ 3.3646E+1
  GLAS SILICA 0 0 1.5 4.0E+1 0 0 0 0 0 0 
  DIAM 1.045886105467E+2 0 0 0 1 ""
  POPS 0 0 0 0 0 0 0 0 1 1 1 1 0 0 0 0
SURF 22
  TYPE STANDARD
  CURV 1.246308589745746800E-003 0 0 0 0 ""
  HIDE 0 0 0 0 0 0 0 0 0 0
  MIRR 2 0
  SLAB 37
  DISZ 5.5304E+1
  DIAM 9.92988995227E+1 0 0 0 1 ""
  POPS 0 0 0 0 0 0 0 0 1 1 1 1 0 0 0 0
SURF 23
  TYPE STANDARD
  CURV -1.287714418937540400E-003 0 0 0 0 ""
  HIDE 0 0 0 0 0 0 0 0 0 0
  MIRR 2 0
  SLAB 36
  DISZ 8.703
  GLAS SILICA 0 0 1.5 4.0E+1 0 0 0 0 0 0 
  DIAM 7.04387653335E+1 0 0 0 1 ""
  POPS 0 0 0 0 0 0 0 0 1 1 1 1 0 0 0 0
SURF 24
  TYPE STANDARD
  CURV 9.418608155761175000E-003 0 0 0 0 ""
  HIDE 0 0 0 0 0 0 0 0 0 0
  MIRR 2 0
  SLAB 35
  DISZ 2.409E+1
  DIAM 6.019150809238E+1 0 0 0 1 ""
  POPS 0 0 0 0 0 0 0 0 1 1 1 1 0 0 0 0
SURF 25
  TYPE STANDARD
  CURV -4.982983112670231500E-003 0 0 0 0 ""
  HIDE 0 0 0 0 0 0 0 0 0 0
  MIRR 2 0
  SLAB 34
  DISZ 1.1452E+1
  GLAS SILICA 0 0 1.5 4.0E+1 0 0 0 0 0 0 
  DIAM 6.090597635875E+1 0 0 0 1 ""
  POPS 0 0 0 0 0 0 0 0 1 1 1 1 0 0 0 0
SURF 26
  TYPE STANDARD
  CURV 3.206912564170320800E-003 0 0 0 0 ""
  HIDE 0 0 0 0 0 0 0 0 0 0
  MIRR 2 0
  SLAB 33
  DISZ 5.954E+1
  DIAM 6.080783567956E+1 0 0 0 1 ""
  POPS 0 0 0 0 0 0 0 0 1 1 1 1 0 0 0 0
SURF 27
  TYPE STANDARD
  CURV -1.294873853389202900E-002 0 0 0 0 ""
  HIDE 0 0 0 0 0 0 0 0 0 0
  MIRR 2 0
  SLAB 32
  DISZ 1.1772E+1
  GLAS SILICA 0 0 1.5 4.0E+1 0 0 0 0 0 0 
  DIAM 6.286259723833E+1 0 0 0 1 ""
  POPS 0 0 0 0 0 0 0 0 1 1 1 1 0 0 0 0
SURF 28
  TYPE STANDARD
  CURV 4.314430146614691400E-004 0 0 0 0 ""
  HIDE 0 0 0 0 0 0 0 0 0 0
  MIRR 2 0
  SLAB 31
  DISZ 1.1862E+1
  DIAM 8.366160287771E+1 0 0 0 1 ""
  POPS 0 0 0 0 0 0 0 0 1 1 1 1 0 0 0 0
SURF 29
  TYPE STANDARD
  CURV -3.437774055050451000E-003 0 0 0 0 ""
  HIDE 0 0 0 0 0 0 0 0 0 0
  MIRR 2 0
  SLAB 30
  DISZ 2.2904E+1
  GLAS SILICA 0 0 1.5 4.0E+1 0 0 0 0 0 0 
  DIAM 8.234668476556E+1 0 0 0 1 ""
  POPS 0 0 0 0 0 0 0 0 1 1 1 1 0 0 0 0
SURF 30
  TYPE STANDARD
  CURV -6.740465779666306500E-003 0 0 0 0 ""
  HIDE 0 0 0 0 0 0 0 0 0 0
  MIRR 2 0
  SLAB 29
  DISZ 1.373
  DIAM 8.664568903861E+1 0 0 0 1 ""
  POPS 0 0 0 0 0 0 0 0 1 1 1 1 0 0 0 0
SURF 31
  TYPE STANDARD
  CURV -1.767251462546383600E-004 0 0 0 0 ""
  HIDE 0 0 0 0 0 0 0 0 0 0
  MIRR 2 0
  SLAB 44
  DISZ 4.1227E+1
  GLAS SILICA 0 0 1.5 4.0E+1 0 0 0 0 0 0 
  DIAM 1.031151122575E+2 0 0 0 1 ""
  POPS 0 0 0 0 0 0 0 0 1 1 1 1 0 0 0 0
SURF 32
  TYPE STANDARD
  CURV -6.579562038032499600E-003 0 0 0 0 ""
  HIDE 0 0 0 0 0 0 0 0 0 0
  MIRR 2 0
  SLAB 43
  DISZ 9.16E-1
  DIAM 1.036117215202E+2 0 0 0 1 ""
  POPS 0 0 0 0 0 0 0 0 1 1 1 1 0 0 0 0
SURF 33
  TYPE STANDARD
  CURV 1.474707657640718400E-003 0 0 0 0 ""
  HIDE 0 0 0 0 0 0 0 0 0 0
  MIRR 2 0
  SLAB 42
  DISZ 3.2981E+1
  GLAS SILICA 0 0 1.5 4.0E+1 0 0 0 0 0 0 
  DIAM 1.095024752181E+2 0 0 0 1 ""
  POPS 0 0 0 0 0 0 0 0 1 1 1 1 0 0 0 0
SURF 34
  TYPE STANDARD
  CURV -2.788980181506830300E-003 0 0 0 0 ""
  HIDE 0 0 0 0 0 0 0 0 0 0
  MIRR 2 0
  SLAB 41
  DISZ 9.16E-1
  DIAM 1.096460564489E+2 0 0 0 1 ""
  POPS 0 0 0 0 0 0 0 0 1 1 1 1 0 0 0 0
SURF 35
  TYPE STANDARD
  CURV 3.783960095870413400E-003 0 0 0 0 ""
  HIDE 0 0 0 0 0 0 0 0 0 0
  MIRR 2 0
  SLAB 40
  DISZ 3.2814E+1
  GLAS SILICA 0 0 1.5 4.0E+1 0 0 0 0 0 0 
  DIAM 1.042679948232E+2 0 0 0 1 ""
  POPS 0 0 0 0 0 0 0 0 1 1 1 1 0 0 0 0
SURF 36
  TYPE STANDARD
  CURV 4.329588354862066900E-004 0 0 0 0 ""
  HIDE 0 0 0 0 0 0 0 0 0 0
  MIRR 2 0
  SLAB 39
  DISZ 9.16E-1
  DIAM 1.011205085664E+2 0 0 0 1 ""
  POPS 0 0 0 0 0 0 0 0 1 1 1 1 0 0 0 0
SURF 37
  TYPE STANDARD
  CURV 5.838798935703729900E-003 0 0 0 0 ""
  HIDE 0 0 0 0 0 0 0 0 0 0
  MIRR 2 0
  SLAB 28
  DISZ 2.9015E+1
  GLAS SILICA 0 0 1.5 4.0E+1 0 0 0 0 0 0 
  DIAM 9.285371485378E+1 0 0 0 1 ""
  POPS 0 0 0 0 0 0 0 0 1 1 1 1 0 0 0 0
SURF 38
  TYPE STANDARD
  CURV 2.741404668338009700E-003 0 0 0 0 ""
  HIDE 0 0 0 0 0 0 0 0 0 0
  MIRR 2 0
  SLAB 27
  DISZ 9.18E-1
  DIAM 8.771838871076E+1 0 0 0 1 ""
  POPS 0 0 0 0 0 0 0 0 1 1 1 1 0 0 0 0
SURF 39
  TYPE STANDARD
  CURV 8.820675663755843700E-003 0 0 0 0 ""
  HIDE 0 0 0 0 0 0 0 0 0 0
  MIRR 2 0
  SLAB 26
  DISZ 7.6259E+1
  GLAS SILICA 0 0 1.5 4.0E+1 0 0 0 0 0 0 
  DIAM 7.722423114006E+1 0 0 0 1 ""
  POPS 0 0 0 0 0 0 0 0 1 1 1 1 0 0 0 0
SURF 40
  TYPE STANDARD
  CURV 1.270677092995773700E-002 0 0 0 0 ""
  HIDE 0 0 0 0 0 0 0 0 0 0
  MIRR 2 0
  SLAB 25
  DISZ 5.4304E+1
  DIAM 4.423668142221E+1 0 0 0 1 ""
  POPS 0 0 0 0 0 0 0 0 1 1 1 1 0 0 0 0
SURF 41
  TYPE STANDARD
  CURV 2.018395658027260400E-002 0 0 0 0 ""
  HIDE 0 0 0 0 0 0 0 0 0 0
  MIRR 2 0
  SLAB 24
  DISZ 1.865E+1
  GLAS SILICA 0 0 1.5 4.0E+1 0 0 0 0 0 0 
  DIAM 2.538765751931E+1 0 0 0 1 ""
  POPS 0 0 0 0 0 0 0 0 1 1 1 1 0 0 0 0
SURF 42
  TYPE STANDARD
  CURV 9.106340198299664100E-003 0 0 0 0 ""
  HIDE 0 0 0 0 0 0 0 0 0 0
  MIRR 2 0
  SLAB 23
  DISZ 1.30764789603E+1
  VDSZ 0 0
  DIAM 1.924653763959E+1 0 0 0 1 ""
  POPS 0 0 0 0 0 0 0 0 1 1 1 1 0 0 0 0
SURF 43
  TYPE STANDARD
  CURV 0.0 0 0 0 0 ""
  HIDE 0 0 0 0 0 0 0 0 0 0
  MIRR 2 0
  SLAB 3
  DISZ 0
  DIAM 1.201117255762E+1 0 0 0 1 ""
  POPS 0 0 0 0 0 0 0 0 1 1 1 1 0 0 0 0
EFLY 1 43 0 0 0 0 0 0 0 0
REAY 43 1 0 1 0 0 0 0 0 0
WFNO 0 0 0 0 0 0 0 0 0 0
TOL TOFF   0   0              0              0   0 0 0
MNUM 1 1
MOFF   0   1 "" 0 0 0 1 1 0 0.0 ""
