VERS 140730 183 26155
MODE SEQ
NAME 
PFIL 0 0 0
LANG 0
UNIT MM X W X CM MR CPMM
FNUM 3.5 0
ENVD 2.0E+1 1 0
GFAC 0 0
GCAT SCHOTT
RAIM 0 2 1 1 0 1 0 0 0
PUSH 0 0 0 0 0 0
SDMA 0 1 0
FTYP 0 0 9 1 0 0 0
ROPD 2
PICB 1
XFLN 0 -1.3E+1 1.3E+1 0 0 1.3E+1 1.3E+1 -1.3E+1 -1.3E+1 0 0 0
YFLN 1.6E+1 1.6E+1 1.6E+1 1.3E+1 1.9E+1 1.3E+1 1.9E+1 1.3E+1 1.9E+1 0 0 0
FWGN 1 1 1 1 1 1 1 1 1 1 1 1
VDXN 0 0 0 0 0 0 0 0 0 0 0 0
VDYN 0 0 0 0 0 0 0 0 0 0 0 0
VCXN 0 0 0 0 0 0 0 0 0 0 0 0
VCYN 0 0 0 0 0 0 0 0 0 0 0 0
VANN 0 0 0 0 0 0 0 0 0 0 0 0
WAVM 1 5.5E-1 1
WAVM 2 5.5E-1 1
WAVM 3 5.5E-1 1
WAVM 4 5.5E-1 1
WAVM 5 5.5E-1 1
WAVM 6 5.5E-1 1
WAVM 7 5.5E-1 1
WAVM 8 5.5E-1 1
WAVM 9 5.5E-1 1
WAVM 10 5.5E-1 1
WAVM 11 5.5E-1 1
WAVM 12 5.5E-1 1
WAVM 13 5.5E-1 1
WAVM 14 5.5E-1 1
WAVM 15 5.5E-1 1
WAVM 16 5.5E-1 1
WAVM 17 5.5E-1 1
WAVM 18 5.5E-1 1
WAVM 19 5.5E-1 1
WAVM 20 5.5E-1 1
WAVM 21 5.5E-1 1
WAVM 22 5.5E-1 1
WAVM 23 5.5E-1 1
WAVM 24 5.5E-1 1
PWAV 1
POLS 1 0 1 0 0 1 0
GLRS 4 0
GSTD 0 100.000 100.000 100.000 100.000 100.000 100.000 0 1 1 0 0 1 1 1 1 1 1
NSCD 100 500 0 1.0E-3 5 1.0E-6 0 0 0 0 0 0 1000000 0 2
COFN QF "COATING.DAT" "SCATTER_PROFILE.DAT" "ABG_DATA.DAT" "PROFILE.GRD"
COFN COATING.DAT SCATTER_PROFILE.DAT ABG_DATA.DAT PROFILE.GRD
SURF 0
  TYPE STANDARD
  CURV 0.0 0 0 0 0 ""
  HIDE 0 0 0 0 0 0 0 0 0 0
  MIRR 2 0
  DISZ INFINITY
  DIAM 0 0 0 0 1 ""
  POPS 0 0 0 0 0 0 0 0 1 1 1 1 0 0 0 0
SURF 1
  TYPE STANDARD
  CURV 0.0 0 0 0 0 ""
  HIDE 0 0 1 0 0 0 0 0 0 0
  MIRR 2 0
  SLAB 2
  DISZ 4.0E+2
  DIAM 8.476053750007E+2 0 0 0 1 ""
  POPS 0 0 0 0 0 0 0 0 1 1 1 1 0 0 0 0
SURF 2
  TYPE EVENASPH
  CURV -2.804293934873077400E-004 0 0 0 0 ""
  HIDE 0 0 0 0 0 0 0 0 0 0
  MIRR 2 0
  SLAB 1
  PARM 1 0
  PARM 2 -2.70865E-11
  PARM 3 3.14594E-17
  PARM 4 4.06319E-24
  PARM 5 0
  PARM 6 0
  PARM 7 0
  PARM 8 0
  DISZ -4.E+2
  GLAS MIRROR 0 0 1.5 4.0E+1 0 0 0 0 0 0 
  CONI 8.11561
  DIAM 7.16062086566E+2 0 0 0 1 ""
  POPS 0 0 0 0 0 0 0 0 1 1 1 1 0 0 0 0
  SQAP 4.24E+2 1.92E+2 0
  OBDC 0.000000000000E+000 -3.970000000000E+002
SURF 3
  TYPE EVENASPH
  CURV -4.270744715380488900E-004 0 0 0 0 ""
  HIDE 0 0 0 0 0 0 0 0 0 0
  MIRR 2 0
  SLAB 1
  PARM 1 0
  PARM 2 -5.45677E-10
  PARM 3 -3.47241E-16
  PARM 4 0
  PARM 5 0
  PARM 6 0
  PARM 7 0
  PARM 8 0
  DISZ 4.0E+2
  GLAS MIRROR 0 0 1.5 4.0E+1 0 0 0 0 0 0 
  CONI 4.2752
  DIAM 2.955712010837E+2 0 0 0 1 ""
  POPS 0 0 0 0 0 0 0 0 1 1 1 1 0 0 0 0
  SQAP 1.9E+2 9.5E+1 0
  OBDC 0.000000000000E+000 -1.560000000000E+002
SURF 4
  STOP
  TYPE EVENASPH
  CURV 1.077939324951277000E-003 0 0 0 0 ""
  HIDE 0 0 0 0 0 0 0 0 0 0
  MIRR 2 0
  SLAB 3
  PARM 1 0
  PARM 2 -1.943596136597E-10
  VPAR 2
  PARM 3 -8.22925E-16
  PARM 4 0
  PARM 5 0
  PARM 6 0
  PARM 7 0
  PARM 8 0
  DISZ -3.993808E+2
  GLAS MIRROR 0 0 1.5 4.0E+1 0 0 0 0 0 0 
  DIAM 5.850393517472E+1 0 0 0 1 ""
  POPS 0 0 0 0 0 0 0 0 1 1 1 1 0 0 0 0
SURF 5
  TYPE EVENASPH
  CURV 1.237842836046478600E-003 0 0 0 0 ""
  HIDE 0 0 0 0 0 0 0 0 0 0
  MIRR 2 0
  SLAB 1
  PARM 1 0
  PARM 2 7.93987E-11
  PARM 3 1.41338E-16
  PARM 4 -5.15897E-23
  PARM 5 9.07704E-28
  PARM 6 0
  PARM 7 0
  PARM 8 0
  DISZ 4.0E+2
  GLAS MIRROR 0 0 1.5 4.0E+1 0 0 0 0 0 0 
  CONI -2.25786E-1
  DIAM 3.183828635073E+2 0 0 0 1 ""
  POPS 0 0 0 0 0 0 0 0 1 1 1 1 0 0 0 0
  SQAP 2.25435E+2 1.4E+2 0
  OBDC 0.000000000000E+000 1.400000000000E+002
SURF 6
  TYPE COORDBRK
  CURV 0.0 0 0.0 0.0 0
  HIDE 0 0 1 0 0 0 0 0 0 0
  MIRR 2 0
  SLAB 4
  PARM 1 0
  PARM 2 1.4E+2
  PARM 3 0
  PARM 4 0
  PARM 5 0
  PARM 6 0
  DISZ 3.799995994472E+2
  VDSZ 0 0
  DIAM 0 0 0 0 1 ""
  POPS 0 0 0 0 0 0 0 0 1 1 1 1 0 0 0 0
SURF 7
  TYPE STANDARD
  CURV 0.0 0 0 0 0 ""
  HIDE 0 0 0 0 0 0 0 0 0 0
  MIRR 2 0
  DISZ 0
  DIAM 1.173825731465E+2 0 0 0 1 ""
  POPS 0 0 0 0 0 0 0 0 1 1 1 1 0 0 0 0
DMFS 0 0 0 0 0 0 0 0 0 0
BLNK Sequential merit function: RMS wavefront centroid RA 10 x 10 rays delete vignetted
BLNK No default air thickness boundary constraints.
BLNK No default glass thickness boundary constraints.
BLNK Operands for field 1.
OPDX 0 1 0 7.761140001163E-1 -9.E-1 -3.E-1 0 2.0E-1 0 0
OPDX 0 1 0 7.761140001163E-1 -9.E-1 -1.E-1 0 2.0E-1 0 0
OPDX 0 1 0 7.761140001163E-1 -9.E-1 1.0E-1 0 2.0E-1 0 0
OPDX 0 1 0 7.761140001163E-1 -9.E-1 3.0E-1 0 2.0E-1 0 0
OPDX 0 1 0 7.761140001163E-1 -7.E-1 -7.E-1 0 2.0E-1 0 0
OPDX 0 1 0 7.761140001163E-1 -7.E-1 -5.E-1 0 2.0E-1 0 0
OPDX 0 1 0 7.761140001163E-1 -7.E-1 -3.E-1 0 2.0E-1 0 0
OPDX 0 1 0 7.761140001163E-1 -7.E-1 -1.E-1 0 2.0E-1 0 0
OPDX 0 1 0 7.761140001163E-1 -7.E-1 1.0E-1 0 2.0E-1 0 0
OPDX 0 1 0 7.761140001163E-1 -7.E-1 3.0E-1 0 2.0E-1 0 0
OPDX 0 1 0 7.761140001163E-1 -7.E-1 5.0E-1 0 2.0E-1 0 0
OPDX 0 1 0 7.761140001163E-1 -7.E-1 7.0E-1 0 2.0E-1 0 0
OPDX 0 1 0 7.761140001163E-1 -5.E-1 -7.E-1 0 2.0E-1 0 0
OPDX 0 1 0 7.761140001163E-1 -5.E-1 -5.E-1 0 2.0E-1 0 0
OPDX 0 1 0 7.761140001163E-1 -5.E-1 -3.E-1 0 2.0E-1 0 0
OPDX 0 1 0 7.761140001163E-1 -5.E-1 -1.E-1 0 2.0E-1 0 0
OPDX 0 1 0 7.761140001163E-1 -5.E-1 1.0E-1 0 2.0E-1 0 0
OPDX 0 1 0 7.761140001163E-1 -5.E-1 3.0E-1 0 2.0E-1 0 0
OPDX 0 1 0 7.761140001163E-1 -5.E-1 5.0E-1 0 2.0E-1 0 0
OPDX 0 1 0 7.761140001163E-1 -5.E-1 7.0E-1 0 2.0E-1 0 0
OPDX 0 1 0 7.761140001163E-1 -3.E-1 -9.E-1 0 2.0E-1 0 0
OPDX 0 1 0 7.761140001163E-1 -3.E-1 -7.E-1 0 2.0E-1 0 0
OPDX 0 1 0 7.761140001163E-1 -3.E-1 -5.E-1 0 2.0E-1 0 0
OPDX 0 1 0 7.761140001163E-1 -3.E-1 -3.E-1 0 2.0E-1 0 0
OPDX 0 1 0 7.761140001163E-1 -3.E-1 -1.E-1 0 2.0E-1 0 0
OPDX 0 1 0 7.761140001163E-1 -3.E-1 1.0E-1 0 2.0E-1 0 0
OPDX 0 1 0 7.761140001163E-1 -3.E-1 3.0E-1 0 2.0E-1 0 0
OPDX 0 1 0 7.761140001163E-1 -3.E-1 5.0E-1 0 2.0E-1 0 0
OPDX 0 1 0 7.761140001163E-1 -3.E-1 7.0E-1 0 2.0E-1 0 0
OPDX 0 1 0 7.761140001163E-1 -3.E-1 9.0E-1 0 2.0E-1 0 0
OPDX 0 1 0 7.761140001163E-1 -1.E-1 -9.E-1 0 2.0E-1 0 0
OPDX 0 1 0 7.761140001163E-1 -1.E-1 -7.E-1 0 2.0E-1 0 0
OPDX 0 1 0 7.761140001163E-1 -1.E-1 -5.E-1 0 2.0E-1 0 0
OPDX 0 1 0 7.761140001163E-1 -1.E-1 -3.E-1 0 2.0E-1 0 0
OPDX 0 1 0 7.761140001163E-1 -1.E-1 -1.E-1 0 2.0E-1 0 0
OPDX 0 1 0 7.761140001163E-1 -1.E-1 1.0E-1 0 2.0E-1 0 0
OPDX 0 1 0 7.761140001163E-1 -1.E-1 3.0E-1 0 2.0E-1 0 0
OPDX 0 1 0 7.761140001163E-1 -1.E-1 5.0E-1 0 2.0E-1 0 0
OPDX 0 1 0 7.761140001163E-1 -1.E-1 7.0E-1 0 2.0E-1 0 0
OPDX 0 1 0 7.761140001163E-1 -1.E-1 9.0E-1 0 2.0E-1 0 0
OPDX 0 1 0 7.761140001163E-1 1.0E-1 -9.E-1 0 2.0E-1 0 0
OPDX 0 1 0 7.761140001163E-1 1.0E-1 -7.E-1 0 2.0E-1 0 0
OPDX 0 1 0 7.761140001163E-1 1.0E-1 -5.E-1 0 2.0E-1 0 0
OPDX 0 1 0 7.761140001163E-1 1.0E-1 -3.E-1 0 2.0E-1 0 0
OPDX 0 1 0 7.761140001163E-1 1.0E-1 -1.E-1 0 2.0E-1 0 0
OPDX 0 1 0 7.761140001163E-1 1.0E-1 1.0E-1 0 2.0E-1 0 0
OPDX 0 1 0 7.761140001163E-1 1.0E-1 3.0E-1 0 2.0E-1 0 0
OPDX 0 1 0 7.761140001163E-1 1.0E-1 5.0E-1 0 2.0E-1 0 0
OPDX 0 1 0 7.761140001163E-1 1.0E-1 7.0E-1 0 2.0E-1 0 0
OPDX 0 1 0 7.761140001163E-1 1.0E-1 9.0E-1 0 2.0E-1 0 0
OPDX 0 1 0 7.761140001163E-1 3.0E-1 -9.E-1 0 2.0E-1 0 0
OPDX 0 1 0 7.761140001163E-1 3.0E-1 -7.E-1 0 2.0E-1 0 0
OPDX 0 1 0 7.761140001163E-1 3.0E-1 -5.E-1 0 2.0E-1 0 0
OPDX 0 1 0 7.761140001163E-1 3.0E-1 -3.E-1 0 2.0E-1 0 0
OPDX 0 1 0 7.761140001163E-1 3.0E-1 -1.E-1 0 2.0E-1 0 0
OPDX 0 1 0 7.761140001163E-1 3.0E-1 1.0E-1 0 2.0E-1 0 0
OPDX 0 1 0 7.761140001163E-1 3.0E-1 3.0E-1 0 2.0E-1 0 0
OPDX 0 1 0 7.761140001163E-1 3.0E-1 5.0E-1 0 2.0E-1 0 0
OPDX 0 1 0 7.761140001163E-1 3.0E-1 7.0E-1 0 2.0E-1 0 0
OPDX 0 1 0 7.761140001163E-1 3.0E-1 9.0E-1 0 2.0E-1 0 0
OPDX 0 1 0 7.761140001163E-1 5.0E-1 -7.E-1 0 2.0E-1 0 0
OPDX 0 1 0 7.761140001163E-1 5.0E-1 -5.E-1 0 2.0E-1 0 0
OPDX 0 1 0 7.761140001163E-1 5.0E-1 -3.E-1 0 2.0E-1 0 0
OPDX 0 1 0 7.761140001163E-1 5.0E-1 -1.E-1 0 2.0E-1 0 0
OPDX 0 1 0 7.761140001163E-1 5.0E-1 1.0E-1 0 2.0E-1 0 0
OPDX 0 1 0 7.761140001163E-1 5.0E-1 3.0E-1 0 2.0E-1 0 0
OPDX 0 1 0 7.761140001163E-1 5.0E-1 5.0E-1 0 2.0E-1 0 0
OPDX 0 1 0 7.761140001163E-1 5.0E-1 7.0E-1 0 2.0E-1 0 0
OPDX 0 1 0 7.761140001163E-1 7.0E-1 -7.E-1 0 2.0E-1 0 0
OPDX 0 1 0 7.761140001163E-1 7.0E-1 -5.E-1 0 2.0E-1 0 0
OPDX 0 1 0 7.761140001163E-1 7.0E-1 -3.E-1 0 2.0E-1 0 0
OPDX 0 1 0 7.761140001163E-1 7.0E-1 -1.E-1 0 2.0E-1 0 0
OPDX 0 1 0 7.761140001163E-1 7.0E-1 1.0E-1 0 2.0E-1 0 0
OPDX 0 1 0 7.761140001163E-1 7.0E-1 3.0E-1 0 2.0E-1 0 0
OPDX 0 1 0 7.761140001163E-1 7.0E-1 5.0E-1 0 2.0E-1 0 0
OPDX 0 1 0 7.761140001163E-1 7.0E-1 7.0E-1 0 2.0E-1 0 0
OPDX 0 1 0 7.761140001163E-1 9.0E-1 -3.E-1 0 2.0E-1 0 0
OPDX 0 1 0 7.761140001163E-1 9.0E-1 -1.E-1 0 2.0E-1 0 0
OPDX 0 1 0 7.761140001163E-1 9.0E-1 1.0E-1 0 2.0E-1 0 0
OPDX 0 1 0 7.761140001163E-1 9.0E-1 3.0E-1 0 2.0E-1 0 0
BLNK Operands for field 2.
OPDX 0 1 -6.305926250945E-1 7.761140001163E-1 -9.E-1 -3.E-1 0 2.0E-1 0 0
OPDX 0 1 -6.305926250945E-1 7.761140001163E-1 -9.E-1 -1.E-1 0 2.0E-1 0 0
OPDX 0 1 -6.305926250945E-1 7.761140001163E-1 -9.E-1 1.0E-1 0 2.0E-1 0 0
OPDX 0 1 -6.305926250945E-1 7.761140001163E-1 -9.E-1 3.0E-1 0 2.0E-1 0 0
OPDX 0 1 -6.305926250945E-1 7.761140001163E-1 -7.E-1 -7.E-1 0 2.0E-1 0 0
OPDX 0 1 -6.305926250945E-1 7.761140001163E-1 -7.E-1 -5.E-1 0 2.0E-1 0 0
OPDX 0 1 -6.305926250945E-1 7.761140001163E-1 -7.E-1 -3.E-1 0 2.0E-1 0 0
OPDX 0 1 -6.305926250945E-1 7.761140001163E-1 -7.E-1 -1.E-1 0 2.0E-1 0 0
OPDX 0 1 -6.305926250945E-1 7.761140001163E-1 -7.E-1 1.0E-1 0 2.0E-1 0 0
OPDX 0 1 -6.305926250945E-1 7.761140001163E-1 -7.E-1 3.0E-1 0 2.0E-1 0 0
OPDX 0 1 -6.305926250945E-1 7.761140001163E-1 -7.E-1 5.0E-1 0 2.0E-1 0 0
OPDX 0 1 -6.305926250945E-1 7.761140001163E-1 -7.E-1 7.0E-1 0 2.0E-1 0 0
OPDX 0 1 -6.305926250945E-1 7.761140001163E-1 -5.E-1 -7.E-1 0 2.0E-1 0 0
OPDX 0 1 -6.305926250945E-1 7.761140001163E-1 -5.E-1 -5.E-1 0 2.0E-1 0 0
OPDX 0 1 -6.305926250945E-1 7.761140001163E-1 -5.E-1 -3.E-1 0 2.0E-1 0 0
OPDX 0 1 -6.305926250945E-1 7.761140001163E-1 -5.E-1 -1.E-1 0 2.0E-1 0 0
OPDX 0 1 -6.305926250945E-1 7.761140001163E-1 -5.E-1 1.0E-1 0 2.0E-1 0 0
OPDX 0 1 -6.305926250945E-1 7.761140001163E-1 -5.E-1 3.0E-1 0 2.0E-1 0 0
OPDX 0 1 -6.305926250945E-1 7.761140001163E-1 -5.E-1 5.0E-1 0 2.0E-1 0 0
OPDX 0 1 -6.305926250945E-1 7.761140001163E-1 -5.E-1 7.0E-1 0 2.0E-1 0 0
OPDX 0 1 -6.305926250945E-1 7.761140001163E-1 -3.E-1 -9.E-1 0 2.0E-1 0 0
OPDX 0 1 -6.305926250945E-1 7.761140001163E-1 -3.E-1 -7.E-1 0 2.0E-1 0 0
OPDX 0 1 -6.305926250945E-1 7.761140001163E-1 -3.E-1 -5.E-1 0 2.0E-1 0 0
OPDX 0 1 -6.305926250945E-1 7.761140001163E-1 -3.E-1 -3.E-1 0 2.0E-1 0 0
OPDX 0 1 -6.305926250945E-1 7.761140001163E-1 -3.E-1 -1.E-1 0 2.0E-1 0 0
OPDX 0 1 -6.305926250945E-1 7.761140001163E-1 -3.E-1 1.0E-1 0 2.0E-1 0 0
OPDX 0 1 -6.305926250945E-1 7.761140001163E-1 -3.E-1 3.0E-1 0 2.0E-1 0 0
OPDX 0 1 -6.305926250945E-1 7.761140001163E-1 -3.E-1 5.0E-1 0 2.0E-1 0 0
OPDX 0 1 -6.305926250945E-1 7.761140001163E-1 -3.E-1 7.0E-1 0 2.0E-1 0 0
OPDX 0 1 -6.305926250945E-1 7.761140001163E-1 -3.E-1 9.0E-1 0 2.0E-1 0 0
OPDX 0 1 -6.305926250945E-1 7.761140001163E-1 -1.E-1 -9.E-1 0 2.0E-1 0 0
OPDX 0 1 -6.305926250945E-1 7.761140001163E-1 -1.E-1 -7.E-1 0 2.0E-1 0 0
OPDX 0 1 -6.305926250945E-1 7.761140001163E-1 -1.E-1 -5.E-1 0 2.0E-1 0 0
OPDX 0 1 -6.305926250945E-1 7.761140001163E-1 -1.E-1 -3.E-1 0 2.0E-1 0 0
OPDX 0 1 -6.305926250945E-1 7.761140001163E-1 -1.E-1 -1.E-1 0 2.0E-1 0 0
OPDX 0 1 -6.305926250945E-1 7.761140001163E-1 -1.E-1 1.0E-1 0 2.0E-1 0 0
OPDX 0 1 -6.305926250945E-1 7.761140001163E-1 -1.E-1 3.0E-1 0 2.0E-1 0 0
OPDX 0 1 -6.305926250945E-1 7.761140001163E-1 -1.E-1 5.0E-1 0 2.0E-1 0 0
OPDX 0 1 -6.305926250945E-1 7.761140001163E-1 -1.E-1 7.0E-1 0 2.0E-1 0 0
OPDX 0 1 -6.305926250945E-1 7.761140001163E-1 -1.E-1 9.0E-1 0 2.0E-1 0 0
OPDX 0 1 -6.305926250945E-1 7.761140001163E-1 1.0E-1 -9.E-1 0 2.0E-1 0 0
OPDX 0 1 -6.305926250945E-1 7.761140001163E-1 1.0E-1 -7.E-1 0 2.0E-1 0 0
OPDX 0 1 -6.305926250945E-1 7.761140001163E-1 1.0E-1 -5.E-1 0 2.0E-1 0 0
OPDX 0 1 -6.305926250945E-1 7.761140001163E-1 1.0E-1 -3.E-1 0 2.0E-1 0 0
OPDX 0 1 -6.305926250945E-1 7.761140001163E-1 1.0E-1 -1.E-1 0 2.0E-1 0 0
OPDX 0 1 -6.305926250945E-1 7.761140001163E-1 1.0E-1 1.0E-1 0 2.0E-1 0 0
OPDX 0 1 -6.305926250945E-1 7.761140001163E-1 1.0E-1 3.0E-1 0 2.0E-1 0 0
OPDX 0 1 -6.305926250945E-1 7.761140001163E-1 1.0E-1 5.0E-1 0 2.0E-1 0 0
OPDX 0 1 -6.305926250945E-1 7.761140001163E-1 1.0E-1 7.0E-1 0 2.0E-1 0 0
OPDX 0 1 -6.305926250945E-1 7.761140001163E-1 1.0E-1 9.0E-1 0 2.0E-1 0 0
OPDX 0 1 -6.305926250945E-1 7.761140001163E-1 3.0E-1 -9.E-1 0 2.0E-1 0 0
OPDX 0 1 -6.305926250945E-1 7.761140001163E-1 3.0E-1 -7.E-1 0 2.0E-1 0 0
OPDX 0 1 -6.305926250945E-1 7.761140001163E-1 3.0E-1 -5.E-1 0 2.0E-1 0 0
OPDX 0 1 -6.305926250945E-1 7.761140001163E-1 3.0E-1 -3.E-1 0 2.0E-1 0 0
OPDX 0 1 -6.305926250945E-1 7.761140001163E-1 3.0E-1 -1.E-1 0 2.0E-1 0 0
OPDX 0 1 -6.305926250945E-1 7.761140001163E-1 3.0E-1 1.0E-1 0 2.0E-1 0 0
OPDX 0 1 -6.305926250945E-1 7.761140001163E-1 3.0E-1 3.0E-1 0 2.0E-1 0 0
OPDX 0 1 -6.305926250945E-1 7.761140001163E-1 3.0E-1 5.0E-1 0 2.0E-1 0 0
OPDX 0 1 -6.305926250945E-1 7.761140001163E-1 3.0E-1 7.0E-1 0 2.0E-1 0 0
OPDX 0 1 -6.305926250945E-1 7.761140001163E-1 3.0E-1 9.0E-1 0 2.0E-1 0 0
OPDX 0 1 -6.305926250945E-1 7.761140001163E-1 5.0E-1 -7.E-1 0 2.0E-1 0 0
OPDX 0 1 -6.305926250945E-1 7.761140001163E-1 5.0E-1 -5.E-1 0 2.0E-1 0 0
OPDX 0 1 -6.305926250945E-1 7.761140001163E-1 5.0E-1 -3.E-1 0 2.0E-1 0 0
OPDX 0 1 -6.305926250945E-1 7.761140001163E-1 5.0E-1 -1.E-1 0 2.0E-1 0 0
OPDX 0 1 -6.305926250945E-1 7.761140001163E-1 5.0E-1 1.0E-1 0 2.0E-1 0 0
OPDX 0 1 -6.305926250945E-1 7.761140001163E-1 5.0E-1 3.0E-1 0 2.0E-1 0 0
OPDX 0 1 -6.305926250945E-1 7.761140001163E-1 5.0E-1 5.0E-1 0 2.0E-1 0 0
OPDX 0 1 -6.305926250945E-1 7.761140001163E-1 5.0E-1 7.0E-1 0 2.0E-1 0 0
OPDX 0 1 -6.305926250945E-1 7.761140001163E-1 7.0E-1 -7.E-1 0 2.0E-1 0 0
OPDX 0 1 -6.305926250945E-1 7.761140001163E-1 7.0E-1 -5.E-1 0 2.0E-1 0 0
OPDX 0 1 -6.305926250945E-1 7.761140001163E-1 7.0E-1 -3.E-1 0 2.0E-1 0 0
OPDX 0 1 -6.305926250945E-1 7.761140001163E-1 7.0E-1 -1.E-1 0 2.0E-1 0 0
OPDX 0 1 -6.305926250945E-1 7.761140001163E-1 7.0E-1 1.0E-1 0 2.0E-1 0 0
OPDX 0 1 -6.305926250945E-1 7.761140001163E-1 7.0E-1 3.0E-1 0 2.0E-1 0 0
OPDX 0 1 -6.305926250945E-1 7.761140001163E-1 7.0E-1 5.0E-1 0 2.0E-1 0 0
OPDX 0 1 -6.305926250945E-1 7.761140001163E-1 7.0E-1 7.0E-1 0 2.0E-1 0 0
OPDX 0 1 -6.305926250945E-1 7.761140001163E-1 9.0E-1 -3.E-1 0 2.0E-1 0 0
OPDX 0 1 -6.305926250945E-1 7.761140001163E-1 9.0E-1 -1.E-1 0 2.0E-1 0 0
OPDX 0 1 -6.305926250945E-1 7.761140001163E-1 9.0E-1 1.0E-1 0 2.0E-1 0 0
OPDX 0 1 -6.305926250945E-1 7.761140001163E-1 9.0E-1 3.0E-1 0 2.0E-1 0 0
BLNK Operands for field 3.
OPDX 0 1 6.305926250945E-1 7.761140001163E-1 -9.E-1 -3.E-1 0 2.0E-1 0 0
OPDX 0 1 6.305926250945E-1 7.761140001163E-1 -9.E-1 -1.E-1 0 2.0E-1 0 0
OPDX 0 1 6.305926250945E-1 7.761140001163E-1 -9.E-1 1.0E-1 0 2.0E-1 0 0
OPDX 0 1 6.305926250945E-1 7.761140001163E-1 -9.E-1 3.0E-1 0 2.0E-1 0 0
OPDX 0 1 6.305926250945E-1 7.761140001163E-1 -7.E-1 -7.E-1 0 2.0E-1 0 0
OPDX 0 1 6.305926250945E-1 7.761140001163E-1 -7.E-1 -5.E-1 0 2.0E-1 0 0
OPDX 0 1 6.305926250945E-1 7.761140001163E-1 -7.E-1 -3.E-1 0 2.0E-1 0 0
OPDX 0 1 6.305926250945E-1 7.761140001163E-1 -7.E-1 -1.E-1 0 2.0E-1 0 0
OPDX 0 1 6.305926250945E-1 7.761140001163E-1 -7.E-1 1.0E-1 0 2.0E-1 0 0
OPDX 0 1 6.305926250945E-1 7.761140001163E-1 -7.E-1 3.0E-1 0 2.0E-1 0 0
OPDX 0 1 6.305926250945E-1 7.761140001163E-1 -7.E-1 5.0E-1 0 2.0E-1 0 0
OPDX 0 1 6.305926250945E-1 7.761140001163E-1 -7.E-1 7.0E-1 0 2.0E-1 0 0
OPDX 0 1 6.305926250945E-1 7.761140001163E-1 -5.E-1 -7.E-1 0 2.0E-1 0 0
OPDX 0 1 6.305926250945E-1 7.761140001163E-1 -5.E-1 -5.E-1 0 2.0E-1 0 0
OPDX 0 1 6.305926250945E-1 7.761140001163E-1 -5.E-1 -3.E-1 0 2.0E-1 0 0
OPDX 0 1 6.305926250945E-1 7.761140001163E-1 -5.E-1 -1.E-1 0 2.0E-1 0 0
OPDX 0 1 6.305926250945E-1 7.761140001163E-1 -5.E-1 1.0E-1 0 2.0E-1 0 0
OPDX 0 1 6.305926250945E-1 7.761140001163E-1 -5.E-1 3.0E-1 0 2.0E-1 0 0
OPDX 0 1 6.305926250945E-1 7.761140001163E-1 -5.E-1 5.0E-1 0 2.0E-1 0 0
OPDX 0 1 6.305926250945E-1 7.761140001163E-1 -5.E-1 7.0E-1 0 2.0E-1 0 0
OPDX 0 1 6.305926250945E-1 7.761140001163E-1 -3.E-1 -9.E-1 0 2.0E-1 0 0
OPDX 0 1 6.305926250945E-1 7.761140001163E-1 -3.E-1 -7.E-1 0 2.0E-1 0 0
OPDX 0 1 6.305926250945E-1 7.761140001163E-1 -3.E-1 -5.E-1 0 2.0E-1 0 0
OPDX 0 1 6.305926250945E-1 7.761140001163E-1 -3.E-1 -3.E-1 0 2.0E-1 0 0
OPDX 0 1 6.305926250945E-1 7.761140001163E-1 -3.E-1 -1.E-1 0 2.0E-1 0 0
OPDX 0 1 6.305926250945E-1 7.761140001163E-1 -3.E-1 1.0E-1 0 2.0E-1 0 0
OPDX 0 1 6.305926250945E-1 7.761140001163E-1 -3.E-1 3.0E-1 0 2.0E-1 0 0
OPDX 0 1 6.305926250945E-1 7.761140001163E-1 -3.E-1 5.0E-1 0 2.0E-1 0 0
OPDX 0 1 6.305926250945E-1 7.761140001163E-1 -3.E-1 7.0E-1 0 2.0E-1 0 0
OPDX 0 1 6.305926250945E-1 7.761140001163E-1 -3.E-1 9.0E-1 0 2.0E-1 0 0
OPDX 0 1 6.305926250945E-1 7.761140001163E-1 -1.E-1 -9.E-1 0 2.0E-1 0 0
OPDX 0 1 6.305926250945E-1 7.761140001163E-1 -1.E-1 -7.E-1 0 2.0E-1 0 0
OPDX 0 1 6.305926250945E-1 7.761140001163E-1 -1.E-1 -5.E-1 0 2.0E-1 0 0
OPDX 0 1 6.305926250945E-1 7.761140001163E-1 -1.E-1 -3.E-1 0 2.0E-1 0 0
OPDX 0 1 6.305926250945E-1 7.761140001163E-1 -1.E-1 -1.E-1 0 2.0E-1 0 0
OPDX 0 1 6.305926250945E-1 7.761140001163E-1 -1.E-1 1.0E-1 0 2.0E-1 0 0
OPDX 0 1 6.305926250945E-1 7.761140001163E-1 -1.E-1 3.0E-1 0 2.0E-1 0 0
OPDX 0 1 6.305926250945E-1 7.761140001163E-1 -1.E-1 5.0E-1 0 2.0E-1 0 0
OPDX 0 1 6.305926250945E-1 7.761140001163E-1 -1.E-1 7.0E-1 0 2.0E-1 0 0
OPDX 0 1 6.305926250945E-1 7.761140001163E-1 -1.E-1 9.0E-1 0 2.0E-1 0 0
OPDX 0 1 6.305926250945E-1 7.761140001163E-1 1.0E-1 -9.E-1 0 2.0E-1 0 0
OPDX 0 1 6.305926250945E-1 7.761140001163E-1 1.0E-1 -7.E-1 0 2.0E-1 0 0
OPDX 0 1 6.305926250945E-1 7.761140001163E-1 1.0E-1 -5.E-1 0 2.0E-1 0 0
OPDX 0 1 6.305926250945E-1 7.761140001163E-1 1.0E-1 -3.E-1 0 2.0E-1 0 0
OPDX 0 1 6.305926250945E-1 7.761140001163E-1 1.0E-1 -1.E-1 0 2.0E-1 0 0
OPDX 0 1 6.305926250945E-1 7.761140001163E-1 1.0E-1 1.0E-1 0 2.0E-1 0 0
OPDX 0 1 6.305926250945E-1 7.761140001163E-1 1.0E-1 3.0E-1 0 2.0E-1 0 0
OPDX 0 1 6.305926250945E-1 7.761140001163E-1 1.0E-1 5.0E-1 0 2.0E-1 0 0
OPDX 0 1 6.305926250945E-1 7.761140001163E-1 1.0E-1 7.0E-1 0 2.0E-1 0 0
OPDX 0 1 6.305926250945E-1 7.761140001163E-1 1.0E-1 9.0E-1 0 2.0E-1 0 0
OPDX 0 1 6.305926250945E-1 7.761140001163E-1 3.0E-1 -9.E-1 0 2.0E-1 0 0
OPDX 0 1 6.305926250945E-1 7.761140001163E-1 3.0E-1 -7.E-1 0 2.0E-1 0 0
OPDX 0 1 6.305926250945E-1 7.761140001163E-1 3.0E-1 -5.E-1 0 2.0E-1 0 0
OPDX 0 1 6.305926250945E-1 7.761140001163E-1 3.0E-1 -3.E-1 0 2.0E-1 0 0
OPDX 0 1 6.305926250945E-1 7.761140001163E-1 3.0E-1 -1.E-1 0 2.0E-1 0 0
OPDX 0 1 6.305926250945E-1 7.761140001163E-1 3.0E-1 1.0E-1 0 2.0E-1 0 0
OPDX 0 1 6.305926250945E-1 7.761140001163E-1 3.0E-1 3.0E-1 0 2.0E-1 0 0
OPDX 0 1 6.305926250945E-1 7.761140001163E-1 3.0E-1 5.0E-1 0 2.0E-1 0 0
OPDX 0 1 6.305926250945E-1 7.761140001163E-1 3.0E-1 7.0E-1 0 2.0E-1 0 0
OPDX 0 1 6.305926250945E-1 7.761140001163E-1 3.0E-1 9.0E-1 0 2.0E-1 0 0
OPDX 0 1 6.305926250945E-1 7.761140001163E-1 5.0E-1 -7.E-1 0 2.0E-1 0 0
OPDX 0 1 6.305926250945E-1 7.761140001163E-1 5.0E-1 -5.E-1 0 2.0E-1 0 0
OPDX 0 1 6.305926250945E-1 7.761140001163E-1 5.0E-1 -3.E-1 0 2.0E-1 0 0
OPDX 0 1 6.305926250945E-1 7.761140001163E-1 5.0E-1 -1.E-1 0 2.0E-1 0 0
OPDX 0 1 6.305926250945E-1 7.761140001163E-1 5.0E-1 1.0E-1 0 2.0E-1 0 0
OPDX 0 1 6.305926250945E-1 7.761140001163E-1 5.0E-1 3.0E-1 0 2.0E-1 0 0
OPDX 0 1 6.305926250945E-1 7.761140001163E-1 5.0E-1 5.0E-1 0 2.0E-1 0 0
OPDX 0 1 6.305926250945E-1 7.761140001163E-1 5.0E-1 7.0E-1 0 2.0E-1 0 0
OPDX 0 1 6.305926250945E-1 7.761140001163E-1 7.0E-1 -7.E-1 0 2.0E-1 0 0
OPDX 0 1 6.305926250945E-1 7.761140001163E-1 7.0E-1 -5.E-1 0 2.0E-1 0 0
OPDX 0 1 6.305926250945E-1 7.761140001163E-1 7.0E-1 -3.E-1 0 2.0E-1 0 0
OPDX 0 1 6.305926250945E-1 7.761140001163E-1 7.0E-1 -1.E-1 0 2.0E-1 0 0
OPDX 0 1 6.305926250945E-1 7.761140001163E-1 7.0E-1 1.0E-1 0 2.0E-1 0 0
OPDX 0 1 6.305926250945E-1 7.761140001163E-1 7.0E-1 3.0E-1 0 2.0E-1 0 0
OPDX 0 1 6.305926250945E-1 7.761140001163E-1 7.0E-1 5.0E-1 0 2.0E-1 0 0
OPDX 0 1 6.305926250945E-1 7.761140001163E-1 7.0E-1 7.0E-1 0 2.0E-1 0 0
OPDX 0 1 6.305926250945E-1 7.761140001163E-1 9.0E-1 -3.E-1 0 2.0E-1 0 0
OPDX 0 1 6.305926250945E-1 7.761140001163E-1 9.0E-1 -1.E-1 0 2.0E-1 0 0
OPDX 0 1 6.305926250945E-1 7.761140001163E-1 9.0E-1 1.0E-1 0 2.0E-1 0 0
OPDX 0 1 6.305926250945E-1 7.761140001163E-1 9.0E-1 3.0E-1 0 2.0E-1 0 0
BLNK Operands for field 4.
OPDX 0 1 0 6.305926250945E-1 -9.E-1 -3.E-1 0 2.0E-1 0 0
OPDX 0 1 0 6.305926250945E-1 -9.E-1 -1.E-1 0 2.0E-1 0 0
OPDX 0 1 0 6.305926250945E-1 -9.E-1 1.0E-1 0 2.0E-1 0 0
OPDX 0 1 0 6.305926250945E-1 -9.E-1 3.0E-1 0 2.0E-1 0 0
OPDX 0 1 0 6.305926250945E-1 -7.E-1 -7.E-1 0 2.0E-1 0 0
OPDX 0 1 0 6.305926250945E-1 -7.E-1 -5.E-1 0 2.0E-1 0 0
OPDX 0 1 0 6.305926250945E-1 -7.E-1 -3.E-1 0 2.0E-1 0 0
OPDX 0 1 0 6.305926250945E-1 -7.E-1 -1.E-1 0 2.0E-1 0 0
OPDX 0 1 0 6.305926250945E-1 -7.E-1 1.0E-1 0 2.0E-1 0 0
OPDX 0 1 0 6.305926250945E-1 -7.E-1 3.0E-1 0 2.0E-1 0 0
OPDX 0 1 0 6.305926250945E-1 -7.E-1 5.0E-1 0 2.0E-1 0 0
OPDX 0 1 0 6.305926250945E-1 -7.E-1 7.0E-1 0 2.0E-1 0 0
OPDX 0 1 0 6.305926250945E-1 -5.E-1 -7.E-1 0 2.0E-1 0 0
OPDX 0 1 0 6.305926250945E-1 -5.E-1 -5.E-1 0 2.0E-1 0 0
OPDX 0 1 0 6.305926250945E-1 -5.E-1 -3.E-1 0 2.0E-1 0 0
OPDX 0 1 0 6.305926250945E-1 -5.E-1 -1.E-1 0 2.0E-1 0 0
OPDX 0 1 0 6.305926250945E-1 -5.E-1 1.0E-1 0 2.0E-1 0 0
OPDX 0 1 0 6.305926250945E-1 -5.E-1 3.0E-1 0 2.0E-1 0 0
OPDX 0 1 0 6.305926250945E-1 -5.E-1 5.0E-1 0 2.0E-1 0 0
OPDX 0 1 0 6.305926250945E-1 -5.E-1 7.0E-1 0 2.0E-1 0 0
OPDX 0 1 0 6.305926250945E-1 -3.E-1 -9.E-1 0 2.0E-1 0 0
OPDX 0 1 0 6.305926250945E-1 -3.E-1 -7.E-1 0 2.0E-1 0 0
OPDX 0 1 0 6.305926250945E-1 -3.E-1 -5.E-1 0 2.0E-1 0 0
OPDX 0 1 0 6.305926250945E-1 -3.E-1 -3.E-1 0 2.0E-1 0 0
OPDX 0 1 0 6.305926250945E-1 -3.E-1 -1.E-1 0 2.0E-1 0 0
OPDX 0 1 0 6.305926250945E-1 -3.E-1 1.0E-1 0 2.0E-1 0 0
OPDX 0 1 0 6.305926250945E-1 -3.E-1 3.0E-1 0 2.0E-1 0 0
OPDX 0 1 0 6.305926250945E-1 -3.E-1 5.0E-1 0 2.0E-1 0 0
OPDX 0 1 0 6.305926250945E-1 -3.E-1 7.0E-1 0 2.0E-1 0 0
OPDX 0 1 0 6.305926250945E-1 -3.E-1 9.0E-1 0 2.0E-1 0 0
OPDX 0 1 0 6.305926250945E-1 -1.E-1 -9.E-1 0 2.0E-1 0 0
OPDX 0 1 0 6.305926250945E-1 -1.E-1 -7.E-1 0 2.0E-1 0 0
OPDX 0 1 0 6.305926250945E-1 -1.E-1 -5.E-1 0 2.0E-1 0 0
OPDX 0 1 0 6.305926250945E-1 -1.E-1 -3.E-1 0 2.0E-1 0 0
OPDX 0 1 0 6.305926250945E-1 -1.E-1 -1.E-1 0 2.0E-1 0 0
OPDX 0 1 0 6.305926250945E-1 -1.E-1 1.0E-1 0 2.0E-1 0 0
OPDX 0 1 0 6.305926250945E-1 -1.E-1 3.0E-1 0 2.0E-1 0 0
OPDX 0 1 0 6.305926250945E-1 -1.E-1 5.0E-1 0 2.0E-1 0 0
OPDX 0 1 0 6.305926250945E-1 -1.E-1 7.0E-1 0 2.0E-1 0 0
OPDX 0 1 0 6.305926250945E-1 -1.E-1 9.0E-1 0 2.0E-1 0 0
OPDX 0 1 0 6.305926250945E-1 1.0E-1 -9.E-1 0 2.0E-1 0 0
OPDX 0 1 0 6.305926250945E-1 1.0E-1 -7.E-1 0 2.0E-1 0 0
OPDX 0 1 0 6.305926250945E-1 1.0E-1 -5.E-1 0 2.0E-1 0 0
OPDX 0 1 0 6.305926250945E-1 1.0E-1 -3.E-1 0 2.0E-1 0 0
OPDX 0 1 0 6.305926250945E-1 1.0E-1 -1.E-1 0 2.0E-1 0 0
OPDX 0 1 0 6.305926250945E-1 1.0E-1 1.0E-1 0 2.0E-1 0 0
OPDX 0 1 0 6.305926250945E-1 1.0E-1 3.0E-1 0 2.0E-1 0 0
OPDX 0 1 0 6.305926250945E-1 1.0E-1 5.0E-1 0 2.0E-1 0 0
OPDX 0 1 0 6.305926250945E-1 1.0E-1 7.0E-1 0 2.0E-1 0 0
OPDX 0 1 0 6.305926250945E-1 1.0E-1 9.0E-1 0 2.0E-1 0 0
OPDX 0 1 0 6.305926250945E-1 3.0E-1 -9.E-1 0 2.0E-1 0 0
OPDX 0 1 0 6.305926250945E-1 3.0E-1 -7.E-1 0 2.0E-1 0 0
OPDX 0 1 0 6.305926250945E-1 3.0E-1 -5.E-1 0 2.0E-1 0 0
OPDX 0 1 0 6.305926250945E-1 3.0E-1 -3.E-1 0 2.0E-1 0 0
OPDX 0 1 0 6.305926250945E-1 3.0E-1 -1.E-1 0 2.0E-1 0 0
OPDX 0 1 0 6.305926250945E-1 3.0E-1 1.0E-1 0 2.0E-1 0 0
OPDX 0 1 0 6.305926250945E-1 3.0E-1 3.0E-1 0 2.0E-1 0 0
OPDX 0 1 0 6.305926250945E-1 3.0E-1 5.0E-1 0 2.0E-1 0 0
OPDX 0 1 0 6.305926250945E-1 3.0E-1 7.0E-1 0 2.0E-1 0 0
OPDX 0 1 0 6.305926250945E-1 3.0E-1 9.0E-1 0 2.0E-1 0 0
OPDX 0 1 0 6.305926250945E-1 5.0E-1 -7.E-1 0 2.0E-1 0 0
OPDX 0 1 0 6.305926250945E-1 5.0E-1 -5.E-1 0 2.0E-1 0 0
OPDX 0 1 0 6.305926250945E-1 5.0E-1 -3.E-1 0 2.0E-1 0 0
OPDX 0 1 0 6.305926250945E-1 5.0E-1 -1.E-1 0 2.0E-1 0 0
OPDX 0 1 0 6.305926250945E-1 5.0E-1 1.0E-1 0 2.0E-1 0 0
OPDX 0 1 0 6.305926250945E-1 5.0E-1 3.0E-1 0 2.0E-1 0 0
OPDX 0 1 0 6.305926250945E-1 5.0E-1 5.0E-1 0 2.0E-1 0 0
OPDX 0 1 0 6.305926250945E-1 5.0E-1 7.0E-1 0 2.0E-1 0 0
OPDX 0 1 0 6.305926250945E-1 7.0E-1 -7.E-1 0 2.0E-1 0 0
OPDX 0 1 0 6.305926250945E-1 7.0E-1 -5.E-1 0 2.0E-1 0 0
OPDX 0 1 0 6.305926250945E-1 7.0E-1 -3.E-1 0 2.0E-1 0 0
OPDX 0 1 0 6.305926250945E-1 7.0E-1 -1.E-1 0 2.0E-1 0 0
OPDX 0 1 0 6.305926250945E-1 7.0E-1 1.0E-1 0 2.0E-1 0 0
OPDX 0 1 0 6.305926250945E-1 7.0E-1 3.0E-1 0 2.0E-1 0 0
OPDX 0 1 0 6.305926250945E-1 7.0E-1 5.0E-1 0 2.0E-1 0 0
OPDX 0 1 0 6.305926250945E-1 7.0E-1 7.0E-1 0 2.0E-1 0 0
OPDX 0 1 0 6.305926250945E-1 9.0E-1 -3.E-1 0 2.0E-1 0 0
OPDX 0 1 0 6.305926250945E-1 9.0E-1 -1.E-1 0 2.0E-1 0 0
OPDX 0 1 0 6.305926250945E-1 9.0E-1 1.0E-1 0 2.0E-1 0 0
OPDX 0 1 0 6.305926250945E-1 9.0E-1 3.0E-1 0 2.0E-1 0 0
BLNK Operands for field 5.
OPDX 0 1 0 9.216353751381E-1 -9.E-1 -3.E-1 0 2.0E-1 0 0
OPDX 0 1 0 9.216353751381E-1 -9.E-1 -1.E-1 0 2.0E-1 0 0
OPDX 0 1 0 9.216353751381E-1 -9.E-1 1.0E-1 0 2.0E-1 0 0
OPDX 0 1 0 9.216353751381E-1 -9.E-1 3.0E-1 0 2.0E-1 0 0
OPDX 0 1 0 9.216353751381E-1 -7.E-1 -7.E-1 0 2.0E-1 0 0
OPDX 0 1 0 9.216353751381E-1 -7.E-1 -5.E-1 0 2.0E-1 0 0
OPDX 0 1 0 9.216353751381E-1 -7.E-1 -3.E-1 0 2.0E-1 0 0
OPDX 0 1 0 9.216353751381E-1 -7.E-1 -1.E-1 0 2.0E-1 0 0
OPDX 0 1 0 9.216353751381E-1 -7.E-1 1.0E-1 0 2.0E-1 0 0
OPDX 0 1 0 9.216353751381E-1 -7.E-1 3.0E-1 0 2.0E-1 0 0
OPDX 0 1 0 9.216353751381E-1 -7.E-1 5.0E-1 0 2.0E-1 0 0
OPDX 0 1 0 9.216353751381E-1 -7.E-1 7.0E-1 0 2.0E-1 0 0
OPDX 0 1 0 9.216353751381E-1 -5.E-1 -7.E-1 0 2.0E-1 0 0
OPDX 0 1 0 9.216353751381E-1 -5.E-1 -5.E-1 0 2.0E-1 0 0
OPDX 0 1 0 9.216353751381E-1 -5.E-1 -3.E-1 0 2.0E-1 0 0
OPDX 0 1 0 9.216353751381E-1 -5.E-1 -1.E-1 0 2.0E-1 0 0
OPDX 0 1 0 9.216353751381E-1 -5.E-1 1.0E-1 0 2.0E-1 0 0
OPDX 0 1 0 9.216353751381E-1 -5.E-1 3.0E-1 0 2.0E-1 0 0
OPDX 0 1 0 9.216353751381E-1 -5.E-1 5.0E-1 0 2.0E-1 0 0
OPDX 0 1 0 9.216353751381E-1 -5.E-1 7.0E-1 0 2.0E-1 0 0
OPDX 0 1 0 9.216353751381E-1 -3.E-1 -9.E-1 0 2.0E-1 0 0
OPDX 0 1 0 9.216353751381E-1 -3.E-1 -7.E-1 0 2.0E-1 0 0
OPDX 0 1 0 9.216353751381E-1 -3.E-1 -5.E-1 0 2.0E-1 0 0
OPDX 0 1 0 9.216353751381E-1 -3.E-1 -3.E-1 0 2.0E-1 0 0
OPDX 0 1 0 9.216353751381E-1 -3.E-1 -1.E-1 0 2.0E-1 0 0
OPDX 0 1 0 9.216353751381E-1 -3.E-1 1.0E-1 0 2.0E-1 0 0
OPDX 0 1 0 9.216353751381E-1 -3.E-1 3.0E-1 0 2.0E-1 0 0
OPDX 0 1 0 9.216353751381E-1 -3.E-1 5.0E-1 0 2.0E-1 0 0
OPDX 0 1 0 9.216353751381E-1 -3.E-1 7.0E-1 0 2.0E-1 0 0
OPDX 0 1 0 9.216353751381E-1 -3.E-1 9.0E-1 0 2.0E-1 0 0
OPDX 0 1 0 9.216353751381E-1 -1.E-1 -9.E-1 0 2.0E-1 0 0
OPDX 0 1 0 9.216353751381E-1 -1.E-1 -7.E-1 0 2.0E-1 0 0
OPDX 0 1 0 9.216353751381E-1 -1.E-1 -5.E-1 0 2.0E-1 0 0
OPDX 0 1 0 9.216353751381E-1 -1.E-1 -3.E-1 0 2.0E-1 0 0
OPDX 0 1 0 9.216353751381E-1 -1.E-1 -1.E-1 0 2.0E-1 0 0
OPDX 0 1 0 9.216353751381E-1 -1.E-1 1.0E-1 0 2.0E-1 0 0
OPDX 0 1 0 9.216353751381E-1 -1.E-1 3.0E-1 0 2.0E-1 0 0
OPDX 0 1 0 9.216353751381E-1 -1.E-1 5.0E-1 0 2.0E-1 0 0
OPDX 0 1 0 9.216353751381E-1 -1.E-1 7.0E-1 0 2.0E-1 0 0
OPDX 0 1 0 9.216353751381E-1 -1.E-1 9.0E-1 0 2.0E-1 0 0
OPDX 0 1 0 9.216353751381E-1 1.0E-1 -9.E-1 0 2.0E-1 0 0
OPDX 0 1 0 9.216353751381E-1 1.0E-1 -7.E-1 0 2.0E-1 0 0
OPDX 0 1 0 9.216353751381E-1 1.0E-1 -5.E-1 0 2.0E-1 0 0
OPDX 0 1 0 9.216353751381E-1 1.0E-1 -3.E-1 0 2.0E-1 0 0
OPDX 0 1 0 9.216353751381E-1 1.0E-1 -1.E-1 0 2.0E-1 0 0
OPDX 0 1 0 9.216353751381E-1 1.0E-1 1.0E-1 0 2.0E-1 0 0
OPDX 0 1 0 9.216353751381E-1 1.0E-1 3.0E-1 0 2.0E-1 0 0
OPDX 0 1 0 9.216353751381E-1 1.0E-1 5.0E-1 0 2.0E-1 0 0
OPDX 0 1 0 9.216353751381E-1 1.0E-1 7.0E-1 0 2.0E-1 0 0
OPDX 0 1 0 9.216353751381E-1 1.0E-1 9.0E-1 0 2.0E-1 0 0
OPDX 0 1 0 9.216353751381E-1 3.0E-1 -9.E-1 0 2.0E-1 0 0
OPDX 0 1 0 9.216353751381E-1 3.0E-1 -7.E-1 0 2.0E-1 0 0
OPDX 0 1 0 9.216353751381E-1 3.0E-1 -5.E-1 0 2.0E-1 0 0
OPDX 0 1 0 9.216353751381E-1 3.0E-1 -3.E-1 0 2.0E-1 0 0
OPDX 0 1 0 9.216353751381E-1 3.0E-1 -1.E-1 0 2.0E-1 0 0
OPDX 0 1 0 9.216353751381E-1 3.0E-1 1.0E-1 0 2.0E-1 0 0
OPDX 0 1 0 9.216353751381E-1 3.0E-1 3.0E-1 0 2.0E-1 0 0
OPDX 0 1 0 9.216353751381E-1 3.0E-1 5.0E-1 0 2.0E-1 0 0
OPDX 0 1 0 9.216353751381E-1 3.0E-1 7.0E-1 0 2.0E-1 0 0
OPDX 0 1 0 9.216353751381E-1 3.0E-1 9.0E-1 0 2.0E-1 0 0
OPDX 0 1 0 9.216353751381E-1 5.0E-1 -7.E-1 0 2.0E-1 0 0
OPDX 0 1 0 9.216353751381E-1 5.0E-1 -5.E-1 0 2.0E-1 0 0
OPDX 0 1 0 9.216353751381E-1 5.0E-1 -3.E-1 0 2.0E-1 0 0
OPDX 0 1 0 9.216353751381E-1 5.0E-1 -1.E-1 0 2.0E-1 0 0
OPDX 0 1 0 9.216353751381E-1 5.0E-1 1.0E-1 0 2.0E-1 0 0
OPDX 0 1 0 9.216353751381E-1 5.0E-1 3.0E-1 0 2.0E-1 0 0
OPDX 0 1 0 9.216353751381E-1 5.0E-1 5.0E-1 0 2.0E-1 0 0
OPDX 0 1 0 9.216353751381E-1 5.0E-1 7.0E-1 0 2.0E-1 0 0
OPDX 0 1 0 9.216353751381E-1 7.0E-1 -7.E-1 0 2.0E-1 0 0
OPDX 0 1 0 9.216353751381E-1 7.0E-1 -5.E-1 0 2.0E-1 0 0
OPDX 0 1 0 9.216353751381E-1 7.0E-1 -3.E-1 0 2.0E-1 0 0
OPDX 0 1 0 9.216353751381E-1 7.0E-1 -1.E-1 0 2.0E-1 0 0
OPDX 0 1 0 9.216353751381E-1 7.0E-1 1.0E-1 0 2.0E-1 0 0
OPDX 0 1 0 9.216353751381E-1 7.0E-1 3.0E-1 0 2.0E-1 0 0
OPDX 0 1 0 9.216353751381E-1 7.0E-1 5.0E-1 0 2.0E-1 0 0
OPDX 0 1 0 9.216353751381E-1 7.0E-1 7.0E-1 0 2.0E-1 0 0
OPDX 0 1 0 9.216353751381E-1 9.0E-1 -3.E-1 0 2.0E-1 0 0
OPDX 0 1 0 9.216353751381E-1 9.0E-1 -1.E-1 0 2.0E-1 0 0
OPDX 0 1 0 9.216353751381E-1 9.0E-1 1.0E-1 0 2.0E-1 0 0
OPDX 0 1 0 9.216353751381E-1 9.0E-1 3.0E-1 0 2.0E-1 0 0
TOL TOFF   0   0              0              0   0 0 0
MNUM 1 1
MOFF   0   1 "" 0 0 0 1 1 0 0.0 ""
